
     RDKit          3D

 13 12  0  0  0  0  0  0  0  0999 V2000
   -0.9451   -0.9199    0.0476 C   0  0  0  0  0  0  0  0  0  0  0  0
    0.0788    0.1164   -0.4348 C   0  0  0  0  0  0  0  0  0  0  0  0
    1.4069   -0.0426    0.3082 C   0  0  0  0  0  0  0  0  0  0  0  0
   -0.4288    1.4784   -0.2582 N   0  0  0  0  0  0  0  0  0  0  0  0
   -1.8964   -0.8043   -0.5140 H   0  0  0  0  0  0  0  0  0  0  0  0
   -0.5607   -1.9474   -0.1274 H   0  0  0  0  0  0  0  0  0  0  0  0
   -1.1512   -0.7931    1.1320 H   0  0  0  0  0  0  0  0  0  0  0  0
    0.2677   -0.0550   -1.5179 H   0  0  0  0  0  0  0  0  0  0  0  0
    1.8241   -1.0577    0.1357 H   0  0  0  0  0  0  0  0  0  0  0  0
    1.2650    0.1088    1.3999 H   0  0  0  0  0  0  0  0  0  0  0  0
    2.1393    0.7049   -0.0642 H   0  0  0  0  0  0  0  0  0  0  0  0
   -1.2862    1.5949   -0.8462 H   0  0  0  0  0  0  0  0  0  0  0  0
   -0.7134    1.6166    0.7394 H   0  0  0  0  0  0  0  0  0  0  0  0
  1  2  1  0
  2  3  1  0
  2  4  1  0
  1  5  1  0
  1  6  1  0
  1  7  1  0
  2  8  1  0
  3  9  1  0
  3 10  1  0
  3 11  1  0
  4 12  1  0
  4 13  1  0
M  END
