
     RDKit          3D

 14 13  0  0  0  0  0  0  0  0999 V2000
   -1.8962    0.5554   -0.1015 C   0  0  0  0  0  0  0  0  0  0  0  0
   -0.6702   -0.3154   -0.3601 C   0  0  0  0  0  0  0  0  0  0  0  0
    0.5768    0.2718    0.3102 C   0  0  0  0  0  0  0  0  0  0  0  0
    1.8025   -0.6016    0.0499 C   0  0  0  0  0  0  0  0  0  0  0  0
    3.3611    0.1649    0.9083 Br  0  0  0  0  0  0  0  0  0  0  0  0
   -2.7823    0.1065   -0.5979 H   0  0  0  0  0  0  0  0  0  0  0  0
   -2.0971    0.6249    0.9888 H   0  0  0  0  0  0  0  0  0  0  0  0
   -1.7383    1.5757   -0.5116 H   0  0  0  0  0  0  0  0  0  0  0  0
   -0.5066   -0.3891   -1.4575 H   0  0  0  0  0  0  0  0  0  0  0  0
   -0.8639   -1.3359    0.0366 H   0  0  0  0  0  0  0  0  0  0  0  0
    0.4093    0.3449    1.4071 H   0  0  0  0  0  0  0  0  0  0  0  0
    0.7669    1.2925   -0.0883 H   0  0  0  0  0  0  0  0  0  0  0  0
    1.6399   -1.6222    0.4573 H   0  0  0  0  0  0  0  0  0  0  0  0
    1.9982   -0.6725   -1.0414 H   0  0  0  0  0  0  0  0  0  0  0  0
  1  2  1  0
  2  3  1  0
  3  4  1  0
  4  5  1  0
  1  6  1  0
  1  7  1  0
  1  8  1  0
  2  9  1  0
  2 10  1  0
  3 11  1  0
  3 12  1  0
  4 13  1  0
  4 14  1  0
M  END
