
     RDKit          3D

 27 26  0  0  0  0  0  0  0  0999 V2000
   -3.6684   -1.0643   -0.6473 C   0  0  0  0  0  0  0  0  0  0  0  0
   -2.4904   -0.5492    0.1575 C   0  0  0  0  0  0  0  0  0  0  0  0
   -1.9119    0.6248   -0.6007 C   0  0  0  0  0  0  0  0  0  0  0  0
   -0.7378    1.1630    0.1808 C   0  0  0  0  0  0  0  0  0  0  0  0
    0.3539    0.1647    0.3857 C   0  0  0  0  0  0  0  0  0  0  0  0
    1.4624    0.8575    1.1815 C   0  0  0  0  0  0  0  0  0  0  0  0
    2.5775   -0.1022    1.4163 C   0  0  0  0  0  0  0  0  0  0  0  0
    3.2040   -0.6338    0.1733 C   0  0  0  0  0  0  0  0  0  0  0  0
    3.7252    0.4061   -0.5807 O   0  0  0  0  0  0  0  0  0  0  0  0
   -4.0637   -0.2604   -1.2658 H   0  0  0  0  0  0  0  0  0  0  0  0
   -4.4099   -1.4494    0.0835 H   0  0  0  0  0  0  0  0  0  0  0  0
   -3.2954   -1.8920   -1.2917 H   0  0  0  0  0  0  0  0  0  0  0  0
   -2.7782   -0.2063    1.1656 H   0  0  0  0  0  0  0  0  0  0  0  0
   -1.6821   -1.3392    0.1933 H   0  0  0  0  0  0  0  0  0  0  0  0
   -1.6201    0.2754   -1.5987 H   0  0  0  0  0  0  0  0  0  0  0  0
   -2.7208    1.3629   -0.7045 H   0  0  0  0  0  0  0  0  0  0  0  0
   -1.0377    1.5473    1.1757 H   0  0  0  0  0  0  0  0  0  0  0  0
   -0.3501    2.0336   -0.3823 H   0  0  0  0  0  0  0  0  0  0  0  0
    0.0021   -0.6516    1.0829 H   0  0  0  0  0  0  0  0  0  0  0  0
    0.7533   -0.2219   -0.5560 H   0  0  0  0  0  0  0  0  0  0  0  0
    0.9875    1.2122    2.1145 H   0  0  0  0  0  0  0  0  0  0  0  0
    1.7379    1.7449    0.6054 H   0  0  0  0  0  0  0  0  0  0  0  0
    2.2463   -0.9570    2.0344 H   0  0  0  0  0  0  0  0  0  0  0  0
    3.3565    0.4196    2.0259 H   0  0  0  0  0  0  0  0  0  0  0  0
    4.0399   -1.3436    0.4492 H   0  0  0  0  0  0  0  0  0  0  0  0
    2.5144   -1.2165   -0.4667 H   0  0  0  0  0  0  0  0  0  0  0  0
    3.8058    0.0757   -1.5196 H   0  0  0  0  0  0  0  0  0  0  0  0
  1  2  1  0
  2  3  1  0
  3  4  1  0
  4  5  1  0
  5  6  1  0
  6  7  1  0
  7  8  1  0
  8  9  1  0
  1 10  1  0
  1 11  1  0
  1 12  1  0
  2 13  1  0
  2 14  1  0
  3 15  1  0
  3 16  1  0
  4 17  1  0
  4 18  1  0
  5 19  1  0
  5 20  1  0
  6 21  1  0
  6 22  1  0
  7 23  1  0
  7 24  1  0
  8 25  1  0
  8 26  1  0
  9 27  1  0
M  END
