
     RDKit          3D

  9  8  0  0  0  0  0  0  0  0999 V2000
   -1.2564   -0.4025   -0.2084 C   0  0  0  0  0  0  0  0  0  0  0  0
    0.0559   -0.8039    0.9880 S   0  0  0  0  0  0  0  0  0  0  0  0
    1.2589    0.3665    0.2827 C   0  0  0  0  0  0  0  0  0  0  0  0
   -1.5292    0.6706   -0.1304 H   0  0  0  0  0  0  0  0  0  0  0  0
   -2.1518   -1.0175    0.0166 H   0  0  0  0  0  0  0  0  0  0  0  0
   -0.9152   -0.6293   -1.2399 H   0  0  0  0  0  0  0  0  0  0  0  0
    1.4755    0.1016   -0.7732 H   0  0  0  0  0  0  0  0  0  0  0  0
    0.8615    1.4014    0.3364 H   0  0  0  0  0  0  0  0  0  0  0  0
    2.2007    0.3132    0.8663 H   0  0  0  0  0  0  0  0  0  0  0  0
  1  2  1  0
  2  3  1  0
  1  4  1  0
  1  5  1  0
  1  6  1  0
  3  7  1  0
  3  8  1  0
  3  9  1  0
M  END
