
     RDKit          3D

  5  4  0  0  0  0  0  0  0  0999 V2000
   -0.0387    1.2409   -0.6930 F   0  0  0  0  0  0  0  0  0  0  0  0
   -0.0029    0.0996    0.0847 C   0  0  0  0  0  0  0  0  0  0  0  0
   -1.4255   -0.9054   -0.2719 Cl  0  0  0  0  0  0  0  0  0  0  0  0
    1.4766   -0.8178   -0.2770 Cl  0  0  0  0  0  0  0  0  0  0  0  0
   -0.0095    0.3827    1.1573 H   0  0  0  0  0  0  0  0  0  0  0  0
  1  2  1  0
  2  3  1  0
  2  4  1  0
  2  5  1  0
M  END
