
     RDKit          3D

 29 28  0  0  0  0  0  0  0  0999 V2000
  46.2503    10.2170    26.0378 C   0  0  0  0  0  0  0  0  0  0  0  0
  45.7913    10.0365    27.5475 C   0  0  0  0  0  0  0  0  0  0  0  0
  46.8017     9.3983    28.4686 C   0  0  0  0  0  0  0  0  0  0  0  0
  48.0275    10.2201    28.9177 C   0  0  0  0  0  0  0  0  0  0  0  0
  47.7289    11.3456    29.8966 C   0  0  0  0  0  0  0  0  0  0  0  0
  48.5982    12.5945    29.7939 C   0  0  0  0  0  0  0  0  0  0  0  0
  48.6431    13.3060    28.4868 C   0  0  0  0  0  0  0  0  0  0  0  0
  49.7882    14.2818    28.6135 C   0  0  0  0  0  0  0  0  0  0  0  0
  50.2111    14.8815    27.3990 C   0  0  0  0  0  0  0  0  0  0  0  0
  45.4939    10.6723    25.3738 H   0  0  0  0  0  0  0  0  0  0  0  0
  46.5080     9.2281    25.6414 H   0  0  0  0  0  0  0  0  0  0  0  0
  47.1619    10.8224    25.9839 H   0  0  0  0  0  0  0  0  0  0  0  0
  45.5303    11.0244    27.9426 H   0  0  0  0  0  0  0  0  0  0  0  0
  44.8797     9.4304    27.6020 H   0  0  0  0  0  0  0  0  0  0  0  0
  47.0648     8.4118    28.0737 H   0  0  0  0  0  0  0  0  0  0  0  0
  46.3058     9.1757    29.4217 H   0  0  0  0  0  0  0  0  0  0  0  0
  48.5233    10.6633    28.0425 H   0  0  0  0  0  0  0  0  0  0  0  0
  48.7635     9.5428    29.3848 H   0  0  0  0  0  0  0  0  0  0  0  0
  47.8323    10.9702    30.9186 H   0  0  0  0  0  0  0  0  0  0  0  0
  46.6733    11.6379    29.8193 H   0  0  0  0  0  0  0  0  0  0  0  0
  48.2825    13.2902    30.5752 H   0  0  0  0  0  0  0  0  0  0  0  0
  49.6305    12.3216    30.0854 H   0  0  0  0  0  0  0  0  0  0  0  0
  47.6769    13.8197    28.3079 H   0  0  0  0  0  0  0  0  0  0  0  0
  48.8080    12.5854    27.6776 H   0  0  0  0  0  0  0  0  0  0  0  0
  49.5299    15.0773    29.3203 H   0  0  0  0  0  0  0  0  0  0  0  0
  50.6544    13.7350    29.0145 H   0  0  0  0  0  0  0  0  0  0  0  0
  49.3655    15.4525    26.9949 H   0  0  0  0  0  0  0  0  0  0  0  0
  51.0288    15.5880    27.5402 H   0  0  0  0  0  0  0  0  0  0  0  0
  50.5392    14.1136    26.6889 H   0  0  0  0  0  0  0  0  0  0  0  0
  1  2  1  0
  2  3  1  0
  3  4  1  0
  4  5  1  0
  5  6  1  0
  6  7  1  0
  7  8  1  0
  8  9  1  0
  1 10  1  0
  1 11  1  0
  1 12  1  0
  2 13  1  0
  2 14  1  0
  3 15  1  0
  3 16  1  0
  4 17  1  0
  4 18  1  0
  5 19  1  0
  5 20  1  0
  6 21  1  0
  6 22  1  0
  7 23  1  0
  7 24  1  0
  8 25  1  0
  8 26  1  0
  9 27  1  0
  9 28  1  0
  9 29  1  0
M  END
