
     RDKit          3D

 11 10  0  0  0  0  0  0  0  0999 V2000
    2.5092    0.8879   -0.8344 Cl  0  0  0  0  0  0  0  0  0  0  0  0
    1.2085   -0.1932   -0.2747 C   0  0  0  0  0  0  0  0  0  0  0  0
   -0.1018    0.5859   -0.1483 C   0  0  0  0  0  0  0  0  0  0  0  0
   -1.2627   -0.3101    0.2895 C   0  0  0  0  0  0  0  0  0  0  0  0
   -1.0735   -0.8367    1.9841 Cl  0  0  0  0  0  0  0  0  0  0  0  0
    1.5040   -0.6188    0.7072 H   0  0  0  0  0  0  0  0  0  0  0  0
    1.0941   -1.0193   -1.0085 H   0  0  0  0  0  0  0  0  0  0  0  0
    0.0224    1.4158    0.5809 H   0  0  0  0  0  0  0  0  0  0  0  0
   -0.3519    1.0303   -1.1362 H   0  0  0  0  0  0  0  0  0  0  0  0
   -2.2124    0.2597    0.2095 H   0  0  0  0  0  0  0  0  0  0  0  0
   -1.3359   -1.2016   -0.3692 H   0  0  0  0  0  0  0  0  0  0  0  0
  1  2  1  0
  2  3  1  0
  3  4  1  0
  4  5  1  0
  2  6  1  0
  2  7  1  0
  3  8  1  0
  3  9  1  0
  4 10  1  0
  4 11  1  0
M  END
