
RDKit          3D

 47 46  0  0  0  0  0  0  0  0999 V2000
   4.0867    50.3948    38.7863 C   0  0  0  0  0  0  0  0  0  0  0  0
   4.0053    50.4344    40.2929 C   0  0  0  0  0  0  0  0  0  0  0  0
   2.5821    50.3712    40.8619 C   0  0  0  0  0  0  0  0  0  0  0  0
   2.9311    50.2876    42.3498 C   0  0  0  0  0  0  0  0  0  0  0  0
   2.7572    48.8841    42.8260 C   0  0  0  0  0  0  0  0  0  0  0  0
   2.2677    48.6859    44.2954 C   0  0  0  0  0  0  0  0  0  0  0  0
   2.2587    47.2562    44.8625 C   0  0  0  0  0  0  0  0  0  0  0  0
   1.3337    46.3021    44.0729 C   0  0  0  0  0  0  0  0  0  0  0  0
   1.2528    44.8960    44.6307 C   0  0  0  0  0  0  0  0  0  0  0  0
   2.3520    44.0170    44.1025 C   0  0  0  0  0  0  0  0  0  0  0  0
   2.0372    43.3336    42.7163 C   0  0  0  0  0  0  0  0  0  0  0  0
   3.3004    42.6980    42.0679 C   0  0  0  0  0  0  0  0  0  0  0  0
   2.9624    41.8880    40.7960 C   0  0  0  0  0  0  0  0  0  0  0  0
   2.5366    40.3815    40.9687 C   0  0  0  0  0  0  0  0  0  0  0  0
   2.1484    39.6867    39.7029 C   0  0  0  0  0  0  0  0  0  0  0  0
   3.7739    51.3237    38.2964 H   0  0  0  0  0  0  0  0  0  0  0  0
   3.4514    49.5767    38.3848 H   0  0  0  0  0  0  0  0  0  0  0  0
   5.1126    50.1768    38.4527 H   0  0  0  0  0  0  0  0  0  0  0  0
   4.5486    51.3311    40.6410 H   0  0  0  0  0  0  0  0  0  0  0  0
   4.5692    49.5851    40.7262 H   0  0  0  0  0  0  0  0  0  0  0  0
   1.9897    49.4886    40.5747 H   0  0  0  0  0  0  0  0  0  0  0  0
   2.0432    51.2867    40.5899 H   0  0  0  0  0  0  0  0  0  0  0  0
   2.2935    50.9843    42.9390 H   0  0  0  0  0  0  0  0  0  0  0  0
   3.9885    50.5945    42.4937 H   0  0  0  0  0  0  0  0  0  0  0  0
   3.7179    48.3633    42.7484 H   0  0  0  0  0  0  0  0  0  0  0  0
   2.0536    48.3619    42.1570 H   0  0  0  0  0  0  0  0  0  0  0  0
   2.9189    49.3209    44.9482 H   0  0  0  0  0  0  0  0  0  0  0  0
   1.2455    49.0883    44.3561 H   0  0  0  0  0  0  0  0  0  0  0  0
   3.2821    46.8655    44.9280 H   0  0  0  0  0  0  0  0  0  0  0  0
   1.9067    47.2790    45.9051 H   0  0  0  0  0  0  0  0  0  0  0  0
   0.3161    46.7175    44.0370 H   0  0  0  0  0  0  0  0  0  0  0  0
   1.6615    46.2436    43.0223 H   0  0  0  0  0  0  0  0  0  0  0  0
   0.2699    44.4672    44.3888 H   0  0  0  0  0  0  0  0  0  0  0  0
   1.2752    44.9332    45.7308 H   0  0  0  0  0  0  0  0  0  0  0  0
   2.5794    43.2394    44.8646 H   0  0  0  0  0  0  0  0  0  0  0  0
   3.2705    44.6142    44.0234 H   0  0  0  0  0  0  0  0  0  0  0  0
   1.2519    42.5736    42.8290 H   0  0  0  0  0  0  0  0  0  0  0  0
   1.6413    44.0833    42.0143 H   0  0  0  0  0  0  0  0  0  0  0  0
   3.7697    42.0042    42.7792 H   0  0  0  0  0  0  0  0  0  0  0  0
   4.0356    43.4824    41.8442 H   0  0  0  0  0  0  0  0  0  0  0  0
   3.8537    41.8756    40.1449 H   0  0  0  0  0  0  0  0  0  0  0  0
   2.1597    42.3718    40.1977 H   0  0  0  0  0  0  0  0  0  0  0  0
   3.3350    39.8714    41.5297 H   0  0  0  0  0  0  0  0  0  0  0  0
   1.6753    40.3722    41.6592 H   0  0  0  0  0  0  0  0  0  0  0  0
   2.9977    39.6488    38.9987 H   0  0  0  0  0  0  0  0  0  0  0  0
   1.8241    38.6544    39.9054 H   0  0  0  0  0  0  0  0  0  0  0  0
   1.3392    40.1806    39.1520 H   0  0  0  0  0  0  0  0  0  0  0  0
  1  2  1  0
  2  3  1  0
  3  4  1  0
  4  5  1  0
  5  6  1  0
  6  7  1  0
  7  8  1  0
  8  9  1  0
  9 10  1  0
 10 11  1  0
 11 12  1  0
 12 13  1  0
 13 14  1  0
 14 15  1  0
  1 16  1  0
  1 17  1  0
  1 18  1  0
  2 19  1  0
  2 20  1  0
  3 21  1  0
  3 22  1  0
  4 23  1  0
  4 24  1  0
  5 25  1  0
  5 26  1  0
  6 27  1  0
  6 28  1  0
  7 29  1  0
  7 30  1  0
  8 31  1  0
  8 32  1  0
  9 33  1  0
  9 34  1  0
 10 35  1  0
 10 36  1  0
 11 37  1  0
 11 38  1  0
 12 39  1  0
 12 40  1  0
 13 41  1  0
 13 42  1  0
 14 43  1  0
 14 44  1  0
 15 45  1  0
 15 46  1  0
 15 47  1  0
M  END
