
     RDKit          3D

 28 27  0  0  0  0  0  0  0  0999 V2000
    2.1513    1.0324   -0.8726 C   0  0  0  0  0  0  0  0  0  0  0  0
    2.1434   -0.3313   -0.2307 C   0  0  0  0  0  0  0  0  0  0  0  0
    3.5739   -0.5848    0.2606 C   0  0  0  0  0  0  0  0  0  0  0  0
    1.1826   -0.4876    0.8974 C   0  0  0  0  0  0  0  0  0  0  0  0
   -0.2311   -0.2851    0.5883 C   0  0  0  0  0  0  0  0  0  0  0  0
   -1.0471   -0.4095    1.5196 O   0  0  0  0  0  0  0  0  0  0  0  0
   -0.8087    0.0516   -0.7119 C   0  0  0  0  0  0  0  0  0  0  0  0
   -2.3180    0.1379   -0.6998 C   0  0  0  0  0  0  0  0  0  0  0  0
   -2.9698   -1.1592   -0.2898 C   0  0  0  0  0  0  0  0  0  0  0  0
   -2.8209    1.2333    0.1844 C   0  0  0  0  0  0  0  0  0  0  0  0
    1.6296    1.7970   -0.2775 H   0  0  0  0  0  0  0  0  0  0  0  0
    1.7385    1.0261   -1.8985 H   0  0  0  0  0  0  0  0  0  0  0  0
    3.2234    1.3496   -1.0190 H   0  0  0  0  0  0  0  0  0  0  0  0
    1.9750   -1.0936   -1.0378 H   0  0  0  0  0  0  0  0  0  0  0  0
    4.2863   -0.1601   -0.4953 H   0  0  0  0  0  0  0  0  0  0  0  0
    3.7730   -0.0413    1.2045 H   0  0  0  0  0  0  0  0  0  0  0  0
    3.7697   -1.6671    0.3812 H   0  0  0  0  0  0  0  0  0  0  0  0
    1.5491    0.1967    1.7189 H   0  0  0  0  0  0  0  0  0  0  0  0
    1.3339   -1.5071    1.3206 H   0  0  0  0  0  0  0  0  0  0  0  0
   -0.4878    1.0662   -1.0866 H   0  0  0  0  0  0  0  0  0  0  0  0
   -0.4978   -0.6849   -1.4697 H   0  0  0  0  0  0  0  0  0  0  0  0
   -2.6405    0.3568   -1.7418 H   0  0  0  0  0  0  0  0  0  0  0  0
   -3.0991   -1.2652    0.7902 H   0  0  0  0  0  0  0  0  0  0  0  0
   -2.4508   -2.0274   -0.7679 H   0  0  0  0  0  0  0  0  0  0  0  0
   -3.9933   -1.1541   -0.7387 H   0  0  0  0  0  0  0  0  0  0  0  0
   -2.1018    2.0617    0.2814 H   0  0  0  0  0  0  0  0  0  0  0  0
   -3.1055    0.8641    1.1929 H   0  0  0  0  0  0  0  0  0  0  0  0
   -3.7575    1.6850   -0.2478 H   0  0  0  0  0  0  0  0  0  0  0  0
  1  2  1  0
  2  3  1  0
  2  4  1  0
  4  5  1  0
  5  6  2  0
  5  7  1  0
  7  8  1  0
  8  9  1  0
  8 10  1  0
  1 11  1  0
  1 12  1  0
  1 13  1  0
  2 14  1  0
  3 15  1  0
  3 16  1  0
  3 17  1  0
  4 18  1  0
  4 19  1  0
  7 20  1  0
  7 21  1  0
  8 22  1  0
  9 23  1  0
  9 24  1  0
  9 25  1  0
 10 26  1  0
 10 27  1  0
 10 28  1  0
M  END
