
     RDKit          3D

  9  8  0  0  0  0  0  0  0  0999 V2000
   -1.0433    1.1391    0.2844 O   0  0  0  0  0  0  0  0  0  0  0  0
   -0.6666   -0.1925    0.0586 C   0  0  0  0  0  0  0  0  0  0  0  0
    0.8505   -0.3107   -0.0664 C   0  0  0  0  0  0  0  0  0  0  0  0
    1.6490    0.1875    1.4480 Cl  0  0  0  0  0  0  0  0  0  0  0  0
   -0.9598    1.6094   -0.5861 H   0  0  0  0  0  0  0  0  0  0  0  0
   -1.0165   -0.8148    0.9094 H   0  0  0  0  0  0  0  0  0  0  0  0
   -1.1509   -0.5795   -0.8665 H   0  0  0  0  0  0  0  0  0  0  0  0
    1.1226   -1.3654   -0.2821 H   0  0  0  0  0  0  0  0  0  0  0  0
    1.2150    0.3269   -0.8994 H   0  0  0  0  0  0  0  0  0  0  0  0
  1  2  1  0
  2  3  1  0
  3  4  1  0
  1  5  1  0
  2  6  1  0
  2  7  1  0
  3  8  1  0
  3  9  1  0
M  END
