
     RDKit          3D

 16 15  0  0  0  0  0  0  0  0999 V2000
   -1.9448   -0.2344    0.5478 C   0  0  0  0  0  0  0  0  0  0  0  0
   -1.1880    0.5237   -0.5425 C   0  0  0  0  0  0  0  0  0  0  0  0
    0.2865    0.7638   -0.1842 C   0  0  0  0  0  0  0  0  0  0  0  0
    1.1188   -0.5239   -0.2126 C   0  0  0  0  0  0  0  0  0  0  0  0
    2.5303   -0.2116   -0.0121 N   0  0  0  0  0  0  0  0  0  0  0  0
   -3.0230   -0.2775    0.2861 H   0  0  0  0  0  0  0  0  0  0  0  0
   -1.5694   -1.2748    0.6361 H   0  0  0  0  0  0  0  0  0  0  0  0
   -1.8392    0.2822    1.5255 H   0  0  0  0  0  0  0  0  0  0  0  0
   -1.2637   -0.0308   -1.5031 H   0  0  0  0  0  0  0  0  0  0  0  0
   -1.6795    1.5105   -0.6851 H   0  0  0  0  0  0  0  0  0  0  0  0
    0.3592    1.2381    0.8190 H   0  0  0  0  0  0  0  0  0  0  0  0
    0.7113    1.4762   -0.9249 H   0  0  0  0  0  0  0  0  0  0  0  0
    0.7777   -1.2224    0.5827 H   0  0  0  0  0  0  0  0  0  0  0  0
    0.9954   -1.0226   -1.1991 H   0  0  0  0  0  0  0  0  0  0  0  0
    2.6579    0.1051    0.9768 H   0  0  0  0  0  0  0  0  0  0  0  0
    3.0704   -1.1018   -0.1104 H   0  0  0  0  0  0  0  0  0  0  0  0
  1  2  1  0
  2  3  1  0
  3  4  1  0
  4  5  1  0
  1  6  1  0
  1  7  1  0
  1  8  1  0
  2  9  1  0
  2 10  1  0
  3 11  1  0
  3 12  1  0
  4 13  1  0
  4 14  1  0
  5 15  1  0
  5 16  1  0
M  END
