
     RDKit          3D

  8  7  0  0  0  0  0  0  0  0999 V2000
    1.6625    0.6842    1.0859 Cl  0  0  0  0  0  0  0  0  0  0  0  0
    0.7257   -0.2340   -0.1229 C   0  0  0  0  0  0  0  0  0  0  0  0
   -0.7706    0.0025    0.0513 C   0  0  0  0  0  0  0  0  0  0  0  0
   -1.2026    1.6853   -0.3531 Cl  0  0  0  0  0  0  0  0  0  0  0  0
    0.9447   -1.3145    0.0102 H   0  0  0  0  0  0  0  0  0  0  0  0
    1.0438    0.0674   -1.1434 H   0  0  0  0  0  0  0  0  0  0  0  0
   -1.3310   -0.6761   -0.6258 H   0  0  0  0  0  0  0  0  0  0  0  0
   -1.0724   -0.2149    1.0978 H   0  0  0  0  0  0  0  0  0  0  0  0
  1  2  1  0
  2  3  1  0
  3  4  1  0
  2  5  1  0
  2  6  1  0
  3  7  1  0
  3  8  1  0
M  END
