
     RDKit          3D

  5  4  0  0  0  0  0  0  0  0999 V2000
   -0.8845   -1.4285   -0.4446 Cl  0  0  0  0  0  0  0  0  0  0  0  0
    0.0018    0.0002    0.1337 C   0  0  0  0  0  0  0  0  0  0  0  0
   -0.8037    1.4738   -0.4502 Cl  0  0  0  0  0  0  0  0  0  0  0  0
    1.6691   -0.0474   -0.4820 Cl  0  0  0  0  0  0  0  0  0  0  0  0
    0.0172    0.0019    1.2430 H   0  0  0  0  0  0  0  0  0  0  0  0
  1  2  1  0
  2  3  1  0
  2  4  1  0
  2  5  1  0
M  END
