
     RDKit          3D

 15 14  0  0  0  0  0  0  0  0999 V2000
   -1.4578   -1.3065   -0.0432 C   0  0  0  0  0  0  0  0  0  0  0  0
   -0.4672   -0.2254   -0.0618 N   0  0  0  0  0  0  0  0  0  0  0  0
   -0.9033    1.1753   -0.0651 C   0  0  0  0  0  0  0  0  0  0  0  0
    0.9374   -0.5579   -0.0766 C   0  0  0  0  0  0  0  0  0  0  0  0
    1.9946    0.5057   -0.0959 C   0  0  0  0  0  0  0  0  0  0  0  0
    1.2972   -1.7670   -0.0735 O   0  0  0  0  0  0  0  0  0  0  0  0
   -1.3357   -1.9414   -0.9461 H   0  0  0  0  0  0  0  0  0  0  0  0
   -1.3139   -1.9303    0.8643 H   0  0  0  0  0  0  0  0  0  0  0  0
   -2.4966   -0.9152   -0.0331 H   0  0  0  0  0  0  0  0  0  0  0  0
   -0.5314    1.6834   -0.9794 H   0  0  0  0  0  0  0  0  0  0  0  0
   -0.5096    1.6946    0.8336 H   0  0  0  0  0  0  0  0  0  0  0  0
   -2.0099    1.2619   -0.0523 H   0  0  0  0  0  0  0  0  0  0  0  0
    3.0070    0.0485   -0.1053 H   0  0  0  0  0  0  0  0  0  0  0  0
    1.8836    1.1317   -1.0054 H   0  0  0  0  0  0  0  0  0  0  0  0
    1.9054    1.1428    0.8082 H   0  0  0  0  0  0  0  0  0  0  0  0
  1  2  1  0
  2  3  1  0
  2  4  1  0
  4  5  1  0
  4  6  2  0
  1  7  1  0
  1  8  1  0
  1  9  1  0
  3 10  1  0
  3 11  1  0
  3 12  1  0
  5 13  1  0
  5 14  1  0
  5 15  1  0
M  END
