
     RDKit          3D

  8  7  0  0  0  0  0  0  0  0999 V2000
   -0.7884   -0.1012   -0.1034 C   0  0  0  0  0  0  0  0  0  0  0  0
    0.6672    0.2556    0.1534 C   0  0  0  0  0  0  0  0  0  0  0  0
    1.8164   -1.2280   -0.3279 Br  0  0  0  0  0  0  0  0  0  0  0  0
   -1.0769   -0.9843    0.5051 H   0  0  0  0  0  0  0  0  0  0  0  0
   -0.9397   -0.3317   -1.1792 H   0  0  0  0  0  0  0  0  0  0  0  0
   -1.4378    0.7551    0.1755 H   0  0  0  0  0  0  0  0  0  0  0  0
    0.8111    0.4916    1.2288 H   0  0  0  0  0  0  0  0  0  0  0  0
    0.9480    1.1429   -0.4522 H   0  0  0  0  0  0  0  0  0  0  0  0
  1  2  1  0
  2  3  1  0
  1  4  1  0
  1  5  1  0
  1  6  1  0
  2  7  1  0
  2  8  1  0
M  END
