
     RDKit          3D

 13 12  0  0  0  0  0  0  0  0999 V2000
   -2.1207    0.2330   -0.2158 C   0  0  0  0  0  0  0  0  0  0  0  0
   -0.6380    0.3209   -0.5400 C   0  0  0  0  0  0  0  0  0  0  0  0
    0.0836   -0.6000    0.2754 O   0  0  0  0  0  0  0  0  0  0  0  0
    1.4746   -0.7787    0.2350 C   0  0  0  0  0  0  0  0  0  0  0  0
    2.2792   -0.0968   -0.5815 C   0  0  0  0  0  0  0  0  0  0  0  0
   -2.6862    0.9489   -0.8489 H   0  0  0  0  0  0  0  0  0  0  0  0
   -2.2910    0.4836    0.8528 H   0  0  0  0  0  0  0  0  0  0  0  0
   -2.4920   -0.7949   -0.4132 H   0  0  0  0  0  0  0  0  0  0  0  0
   -0.4852    0.0740   -1.6130 H   0  0  0  0  0  0  0  0  0  0  0  0
   -0.2836    1.3561   -0.3435 H   0  0  0  0  0  0  0  0  0  0  0  0
    1.9138   -1.5087    0.9024 H   0  0  0  0  0  0  0  0  0  0  0  0
    3.3453   -0.2825   -0.5632 H   0  0  0  0  0  0  0  0  0  0  0  0
    1.9003    0.6451   -1.2705 H   0  0  0  0  0  0  0  0  0  0  0  0
  1  2  1  0
  2  3  1  0
  3  4  1  0
  4  5  2  3
  1  6  1  0
  1  7  1  0
  1  8  1  0
  2  9  1  0
  2 10  1  0
  4 11  1  0
  5 12  1  0
  5 13  1  0
M  END
