
     RDKit          3D

 12 11  0  0  0  0  0  0  0  0999 V2000
   -1.0138   -0.8688   -0.4432 C   0  0  0  0  0  0  0  0  0  0  0  0
   -0.0281    0.1057    0.0313 N   0  0  0  0  0  0  0  0  0  0  0  0
    1.3909   -0.2373    0.1287 C   0  0  0  0  0  0  0  0  0  0  0  0
   -0.4447    1.4250    0.4113 C   0  0  0  0  0  0  0  0  0  0  0  0
   -1.6563    1.7640    0.3435 O   0  0  0  0  0  0  0  0  0  0  0  0
   -1.5182   -0.4783   -1.3521 H   0  0  0  0  0  0  0  0  0  0  0  0
   -1.7727   -1.0482    0.3474 H   0  0  0  0  0  0  0  0  0  0  0  0
   -0.5394   -1.8397   -0.6977 H   0  0  0  0  0  0  0  0  0  0  0  0
    1.5828   -1.2824   -0.1930 H   0  0  0  0  0  0  0  0  0  0  0  0
    1.7304   -0.1272    1.1803 H   0  0  0  0  0  0  0  0  0  0  0  0
    1.9848    0.4424   -0.5183 H   0  0  0  0  0  0  0  0  0  0  0  0
    0.2843    2.1448    0.7619 H   0  0  0  0  0  0  0  0  0  0  0  0
  1  2  1  0
  2  3  1  0
  2  4  1  0
  4  5  2  0
  1  6  1  0
  1  7  1  0
  1  8  1  0
  3  9  1  0
  3 10  1  0
  3 11  1  0
  4 12  1  0
M  END
