
     RDKit          3D

  9  8  0  0  0  0  0  0  0  0999 V2000
   -1.1240   -0.1224    0.0114 C   0  0  0  0  0  0  0  0  0  0  0  0
    0.1612    0.5547   -0.1055 N   0  0  0  0  0  0  0  0  0  0  0  0
    1.4003   -0.1432    0.0430 C   0  0  0  0  0  0  0  0  0  0  0  0
    1.4195   -1.3799    0.2824 O   0  0  0  0  0  0  0  0  0  0  0  0
   -1.9487    0.6059   -0.1385 H   0  0  0  0  0  0  0  0  0  0  0  0
   -1.2218   -0.5731    1.0214 H   0  0  0  0  0  0  0  0  0  0  0  0
   -1.2023   -0.9175   -0.7597 H   0  0  0  0  0  0  0  0  0  0  0  0
    0.1821    1.5800   -0.3036 H   0  0  0  0  0  0  0  0  0  0  0  0
    2.3338    0.3955   -0.0509 H   0  0  0  0  0  0  0  0  0  0  0  0
  1  2  1  0
  2  3  1  0
  3  4  2  0
  1  5  1  0
  1  6  1  0
  1  7  1  0
  2  8  1  0
  3  9  1  0
M  END
