
     RDKit          3D

 13 12  0  0  0  0  0  0  0  0999 V2000
   -2.5026    0.2456    0.3975 C   0  0  0  0  0  0  0  0  0  0  0  0
   -1.1955   -0.3985    0.7139 C   0  0  0  0  0  0  0  0  0  0  0  0
   -1.1674   -1.3962    1.4844 O   0  0  0  0  0  0  0  0  0  0  0  0
   -0.0180    0.1460    0.1843 O   0  0  0  0  0  0  0  0  0  0  0  0
    1.2710   -0.3527    0.4150 C   0  0  0  0  0  0  0  0  0  0  0  0
    2.4402    0.3373   -0.2016 C   0  0  0  0  0  0  0  0  0  0  0  0
    1.4641   -1.3474    1.1655 O   0  0  0  0  0  0  0  0  0  0  0  0
   -2.7840    0.9350    1.2204 H   0  0  0  0  0  0  0  0  0  0  0  0
   -3.2907   -0.5280    0.2810 H   0  0  0  0  0  0  0  0  0  0  0  0
   -2.4232    0.8210   -0.5486 H   0  0  0  0  0  0  0  0  0  0  0  0
    2.8846    1.0401    0.5334 H   0  0  0  0  0  0  0  0  0  0  0  0
    3.2054   -0.4075   -0.5064 H   0  0  0  0  0  0  0  0  0  0  0  0
    2.1161    0.9052   -1.0987 H   0  0  0  0  0  0  0  0  0  0  0  0
  1  2  1  0
  2  3  2  0
  2  4  1  0
  4  5  1  0
  5  6  1  0
  5  7  2  0
  1  8  1  0
  1  9  1  0
  1 10  1  0
  6 11  1  0
  6 12  1  0
  6 13  1  0
M  END
