
     RDKit          3D

 10  9  0  0  0  0  0  0  0  0999 V2000
   -1.3679    0.4225    0.0925 C   0  0  0  0  0  0  0  0  0  0  0  0
    0.0445   -0.3364    0.9143 S   0  0  0  0  0  4  0  0  0  0  0  0
    1.4177   -0.0454   -0.2153 C   0  0  0  0  0  0  0  0  0  0  0  0
   -0.2216   -1.8293    0.7759 O   0  0  0  0  0  0  0  0  0  0  0  0
   -2.2892    0.2160    0.6751 H   0  0  0  0  0  0  0  0  0  0  0  0
   -1.4787    0.0063   -0.9304 H   0  0  0  0  0  0  0  0  0  0  0  0
   -1.2132    1.5193    0.0290 H   0  0  0  0  0  0  0  0  0  0  0  0
    1.6157    1.0441   -0.2836 H   0  0  0  0  0  0  0  0  0  0  0  0
    2.3244   -0.5590    0.1654 H   0  0  0  0  0  0  0  0  0  0  0  0
    1.1683   -0.4383   -1.2229 H   0  0  0  0  0  0  0  0  0  0  0  0
  1  2  1  0
  2  3  1  0
  2  4  2  0
  1  5  1  0
  1  6  1  0
  1  7  1  0
  3  8  1  0
  3  9  1  0
  3 10  1  0
M  END
