
     RDKit          3D

 13 12  0  0  0  0  0  0  0  0999 V2000
    1.5110   -0.4623    0.1182 C   0  0  0  0  0  0  0  0  0  0  0  0
    0.5206    0.6995    0.0673 C   0  0  0  0  0  0  0  0  0  0  0  0
   -0.8361    0.2736   -0.5043 C   0  0  0  0  0  0  0  0  0  0  0  0
   -1.4923   -0.6898    0.3755 N   0  0  0  0  0  0  0  0  0  0  0  0
    1.6672   -0.8817   -0.8985 H   0  0  0  0  0  0  0  0  0  0  0  0
    2.4866   -0.1008    0.5061 H   0  0  0  0  0  0  0  0  0  0  0  0
    1.1385   -1.2623    0.7925 H   0  0  0  0  0  0  0  0  0  0  0  0
    0.3849    1.1157    1.0892 H   0  0  0  0  0  0  0  0  0  0  0  0
    0.9443    1.5017   -0.5748 H   0  0  0  0  0  0  0  0  0  0  0  0
   -0.6919   -0.1785   -1.5103 H   0  0  0  0  0  0  0  0  0  0  0  0
   -1.4813    1.1728   -0.6220 H   0  0  0  0  0  0  0  0  0  0  0  0
   -2.3770   -0.9949   -0.0909 H   0  0  0  0  0  0  0  0  0  0  0  0
   -1.7744   -0.1931    1.2519 H   0  0  0  0  0  0  0  0  0  0  0  0
  1  2  1  0
  2  3  1  0
  3  4  1  0
  1  5  1  0
  1  6  1  0
  1  7  1  0
  2  8  1  0
  2  9  1  0
  3 10  1  0
  3 11  1  0
  4 12  1  0
  4 13  1  0
M  END
