
     RDKit          3D

 19 18  0  0  0  0  0  0  0  0999 V2000
    2.1615   -0.8968    0.0769 C   0  0  0  0  0  0  0  0  0  0  0  0
    1.4157    0.3810   -0.3107 C   0  0  0  0  0  0  0  0  0  0  0  0
   -0.0119    0.4515    0.2830 C   0  0  0  0  0  0  0  0  0  0  0  0
   -0.5476    1.8098    0.1496 N   0  0  0  0  0  0  0  0  0  0  0  0
   -0.9655   -0.5533   -0.3979 C   0  0  0  0  0  0  0  0  0  0  0  0
   -2.3616   -0.5318    0.2243 C   0  0  0  0  0  0  0  0  0  0  0  0
    1.7089   -1.7841   -0.4109 H   0  0  0  0  0  0  0  0  0  0  0  0
    3.2170   -0.8233   -0.2603 H   0  0  0  0  0  0  0  0  0  0  0  0
    2.1537   -1.0340    1.1791 H   0  0  0  0  0  0  0  0  0  0  0  0
    1.3755    0.4622   -1.4190 H   0  0  0  0  0  0  0  0  0  0  0  0
    2.0084    1.2428    0.0666 H   0  0  0  0  0  0  0  0  0  0  0  0
    0.0426    0.2057    1.3678 H   0  0  0  0  0  0  0  0  0  0  0  0
    0.0388    2.4626    0.7191 H   0  0  0  0  0  0  0  0  0  0  0  0
   -0.4789    2.1138   -0.8494 H   0  0  0  0  0  0  0  0  0  0  0  0
   -1.0478   -0.3232   -1.4827 H   0  0  0  0  0  0  0  0  0  0  0  0
   -0.5683   -1.5844   -0.2944 H   0  0  0  0  0  0  0  0  0  0  0  0
   -2.8422    0.4580    0.0745 H   0  0  0  0  0  0  0  0  0  0  0  0
   -2.3033   -0.7518    1.3116 H   0  0  0  0  0  0  0  0  0  0  0  0
   -2.9950   -1.3047   -0.2598 H   0  0  0  0  0  0  0  0  0  0  0  0
  1  2  1  0
  2  3  1  0
  3  4  1  0
  3  5  1  0
  5  6  1  0
  1  7  1  0
  1  8  1  0
  1  9  1  0
  2 10  1  0
  2 11  1  0
  3 12  1  0
  4 13  1  0
  4 14  1  0
  5 15  1  0
  5 16  1  0
  6 17  1  0
  6 18  1  0
  6 19  1  0
M  END
