
     RDKit          3D

 18 17  0  0  0  0  0  0  0  0999 V2000
   -2.8752   -0.0869    0.1283 C   0  0  0  0  0  0  0  0  0  0  0  0
   -1.4000    0.2568    0.3115 C   0  0  0  0  0  0  0  0  0  0  0  0
   -0.5938   -0.0776   -0.9491 C   0  0  0  0  0  0  0  0  0  0  0  0
    0.8528    0.3002   -0.7858 C   0  0  0  0  0  0  0  0  0  0  0  0
    1.6706   -0.3852    0.0256 C   0  0  0  0  0  0  0  0  0  0  0  0
    3.1122   -0.0061    0.1654 C   0  0  0  0  0  0  0  0  0  0  0  0
   -3.3060    0.4960   -0.7136 H   0  0  0  0  0  0  0  0  0  0  0  0
   -2.9957   -1.1721   -0.0770 H   0  0  0  0  0  0  0  0  0  0  0  0
   -3.4331    0.1633    1.0552 H   0  0  0  0  0  0  0  0  0  0  0  0
   -1.3080    1.3419    0.5370 H   0  0  0  0  0  0  0  0  0  0  0  0
   -1.0049   -0.3170    1.1778 H   0  0  0  0  0  0  0  0  0  0  0  0
   -0.6710   -1.1629   -1.1793 H   0  0  0  0  0  0  0  0  0  0  0  0
   -1.0110    0.4878   -1.8106 H   0  0  0  0  0  0  0  0  0  0  0  0
    1.2419    1.1325   -1.3666 H   0  0  0  0  0  0  0  0  0  0  0  0
    1.2931   -1.2315    0.5931 H   0  0  0  0  0  0  0  0  0  0  0  0
    3.6203   -0.0782   -0.8194 H   0  0  0  0  0  0  0  0  0  0  0  0
    3.1951    1.0326    0.5494 H   0  0  0  0  0  0  0  0  0  0  0  0
    3.6129   -0.6936    0.8788 H   0  0  0  0  0  0  0  0  0  0  0  0
  1  2  1  0
  2  3  1  0
  3  4  1  0
  4  5  2  0
  5  6  1  0
  1  7  1  0
  1  8  1  0
  1  9  1  0
  2 10  1  0
  2 11  1  0
  3 12  1  0
  3 13  1  0
  4 14  1  0
  5 15  1  0
  6 16  1  0
  6 17  1  0
  6 18  1  0
M  END
