
     RDKit          3D

  5  4  0  0  0  0  0  0  0  0999 V2000
    1.5974    0.8922   -0.0446 Br  0  0  0  0  0  0  0  0  0  0  0  0
   -0.0039   -0.1900    0.0100 C   0  0  0  0  0  0  0  0  0  0  0  0
   -1.5592    0.9568   -0.0524 Br  0  0  0  0  0  0  0  0  0  0  0  0
   -0.0158   -0.8770   -0.8611 H   0  0  0  0  0  0  0  0  0  0  0  0
   -0.0184   -0.7820    0.9481 H   0  0  0  0  0  0  0  0  0  0  0  0
  1  2  1  0
  2  3  1  0
  2  4  1  0
  2  5  1  0
M  END
