
     RDKit          3D

  6  5  0  0  0  0  0  0  0  0999 V2000
   -0.3561    0.0375   -0.0170 C   0  0  0  0  0  0  0  0  0  0  0  0
    0.9656    0.4764   -0.1442 O   0  0  0  0  0  0  0  0  0  0  0  0
   -0.5401   -0.8262   -0.6923 H   0  0  0  0  0  0  0  0  0  0  0  0
   -1.0422    0.8628   -0.2978 H   0  0  0  0  0  0  0  0  0  0  0  0
   -0.5628   -0.2574    1.0347 H   0  0  0  0  0  0  0  0  0  0  0  0
    1.5355   -0.2931    0.1167 H   0  0  0  0  0  0  0  0  0  0  0  0
  1  2  1  0
  1  3  1  0
  1  4  1  0
  1  5  1  0
  2  6  1  0
M  END
