
     RDKit          3D

 23 22  0  0  0  0  0  0  0  0999 V2000
   -3.8847   -0.1518    1.0063 C   0  0  0  0  0  0  0  0  0  0  0  0
   -3.6176    0.6907   -0.2265 C   0  0  0  0  0  0  0  0  0  0  0  0
   -2.4416    0.2020   -0.8435 O   0  0  0  0  0  0  0  0  0  0  0  0
   -1.2131    0.1690   -0.2094 C   0  0  0  0  0  0  0  0  0  0  0  0
   -1.1377    0.5928    0.9697 O   0  0  0  0  0  0  0  0  0  0  0  0
   -0.0597   -0.3638   -0.9578 C   0  0  0  0  0  0  0  0  0  0  0  0
    1.1896   -0.3426   -0.1662 C   0  0  0  0  0  0  0  0  0  0  0  0
    1.2504    0.0858    1.0166 O   0  0  0  0  0  0  0  0  0  0  0  0
    2.3375   -0.8212   -0.7729 O   0  0  0  0  0  0  0  0  0  0  0  0
    3.5939   -0.8532   -0.1200 C   0  0  0  0  0  0  0  0  0  0  0  0
    3.9287    0.5865    0.2433 C   0  0  0  0  0  0  0  0  0  0  0  0
   -3.9221    0.4890    1.9289 H   0  0  0  0  0  0  0  0  0  0  0  0
   -4.8763   -0.6527    0.9641 H   0  0  0  0  0  0  0  0  0  0  0  0
   -3.0843   -0.9105    1.1749 H   0  0  0  0  0  0  0  0  0  0  0  0
   -4.4721    0.5273   -0.9139 H   0  0  0  0  0  0  0  0  0  0  0  0
   -3.4865    1.7670    0.0179 H   0  0  0  0  0  0  0  0  0  0  0  0
    0.0801    0.2985   -1.8618 H   0  0  0  0  0  0  0  0  0  0  0  0
   -0.3053   -1.3583   -1.3606 H   0  0  0  0  0  0  0  0  0  0  0  0
    3.6173   -1.5232    0.7404 H   0  0  0  0  0  0  0  0  0  0  0  0
    4.3664   -1.1853   -0.8375 H   0  0  0  0  0  0  0  0  0  0  0  0
    3.4279    0.9229    1.1600 H   0  0  0  0  0  0  0  0  0  0  0  0
    5.0399    0.6297    0.3174 H   0  0  0  0  0  0  0  0  0  0  0  0
    3.6693    1.2014   -0.6552 H   0  0  0  0  0  0  0  0  0  0  0  0
  1  2  1  0
  2  3  1  0
  3  4  1  0
  4  5  2  0
  4  6  1  0
  6  7  1  0
  7  8  2  0
  7  9  1  0
  9 10  1  0
 10 11  1  0
  1 12  1  0
  1 13  1  0
  1 14  1  0
  2 15  1  0
  2 16  1  0
  6 17  1  0
  6 18  1  0
 10 19  1  0
 10 20  1  0
 11 21  1  0
 11 22  1  0
 11 23  1  0
M  END
