
     RDKit          3D

 15 14  0  0  0  0  0  0  0  0999 V2000
   -2.0964    0.4883    0.2415 C   0  0  0  0  0  0  0  0  0  0  0  0
   -0.9273   -0.3118   -0.3251 C   0  0  0  0  0  0  0  0  0  0  0  0
    0.4004    0.1287    0.3013 C   0  0  0  0  0  0  0  0  0  0  0  0
    1.5694   -0.6750   -0.2694 C   0  0  0  0  0  0  0  0  0  0  0  0
    3.1337   -0.1544    0.5012 S   0  0  0  0  0  0  0  0  0  0  0  0
   -3.0427    0.1481   -0.2294 H   0  0  0  0  0  0  0  0  0  0  0  0
   -2.1716    0.3368    1.3395 H   0  0  0  0  0  0  0  0  0  0  0  0
   -1.9628    1.5704    0.0286 H   0  0  0  0  0  0  0  0  0  0  0  0
   -0.8899   -0.1629   -1.4264 H   0  0  0  0  0  0  0  0  0  0  0  0
   -1.0983   -1.3915   -0.1213 H   0  0  0  0  0  0  0  0  0  0  0  0
    0.5640    1.2096    0.0970 H   0  0  0  0  0  0  0  0  0  0  0  0
    0.3579   -0.0213    1.4026 H   0  0  0  0  0  0  0  0  0  0  0  0
    1.4202   -1.7567   -0.0655 H   0  0  0  0  0  0  0  0  0  0  0  0
    1.6403   -0.5236   -1.3680 H   0  0  0  0  0  0  0  0  0  0  0  0
    3.1031    1.1154   -0.1068 H   0  0  0  0  0  0  0  0  0  0  0  0
  1  2  1  0
  2  3  1  0
  3  4  1  0
  4  5  1  0
  1  6  1  0
  1  7  1  0
  1  8  1  0
  2  9  1  0
  2 10  1  0
  3 11  1  0
  3 12  1  0
  4 13  1  0
  4 14  1  0
  5 15  1  0
M  END
