
     RDKit          3D

 18 17  0  0  0  0  0  0  0  0999 V2000
    1.8882    0.0204    0.5707 C   0  0  0  0  0  0  0  0  0  0  0  0
    1.0238   -0.3664   -0.6347 C   0  0  0  0  0  0  0  0  0  0  0  0
   -0.4994   -0.1152   -0.4739 C   0  0  0  0  0  0  0  0  0  0  0  0
   -1.0747   -0.9424    0.6955 C   0  0  0  0  0  0  0  0  0  0  0  0
   -0.7912    1.3847   -0.2545 C   0  0  0  0  0  0  0  0  0  0  0  0
   -1.1102   -0.5306   -1.6741 O   0  0  0  0  0  0  0  0  0  0  0  0
    2.9512   -0.2032    0.3402 H   0  0  0  0  0  0  0  0  0  0  0  0
    1.8119    1.1051    0.7877 H   0  0  0  0  0  0  0  0  0  0  0  0
    1.6084   -0.5654    1.4696 H   0  0  0  0  0  0  0  0  0  0  0  0
    1.3923    0.1974   -1.5200 H   0  0  0  0  0  0  0  0  0  0  0  0
    1.1922   -1.4447   -0.8497 H   0  0  0  0  0  0  0  0  0  0  0  0
   -2.1816   -0.8508    0.7273 H   0  0  0  0  0  0  0  0  0  0  0  0
   -0.6836   -0.5885    1.6720 H   0  0  0  0  0  0  0  0  0  0  0  0
   -0.8195   -2.0166    0.5720 H   0  0  0  0  0  0  0  0  0  0  0  0
   -0.4007    1.7336    0.7242 H   0  0  0  0  0  0  0  0  0  0  0  0
   -0.3313    1.9910   -1.0639 H   0  0  0  0  0  0  0  0  0  0  0  0
   -1.8865    1.5715   -0.2615 H   0  0  0  0  0  0  0  0  0  0  0  0
   -2.0892   -0.3799   -1.5970 H   0  0  0  0  0  0  0  0  0  0  0  0
  1  2  1  0
  2  3  1  0
  3  4  1  0
  3  5  1  0
  3  6  1  0
  1  7  1  0
  1  8  1  0
  1  9  1  0
  2 10  1  0
  2 11  1  0
  4 12  1  0
  4 13  1  0
  4 14  1  0
  5 15  1  0
  5 16  1  0
  5 17  1  0
  6 18  1  0
M  END
