
     RDKit          3D

  5  4  0  0  0  0  0  0  0  0999 V2000
   -1.4277    0.9106   -0.0253 Cl  0  0  0  0  0  0  0  0  0  0  0  0
   -0.0042   -0.1543    0.0039 C   0  0  0  0  0  0  0  0  0  0  0  0
    1.4747    0.8325   -0.0194 Cl  0  0  0  0  0  0  0  0  0  0  0  0
   -0.0226   -0.7712    0.9259 H   0  0  0  0  0  0  0  0  0  0  0  0
   -0.0202   -0.8176   -0.8852 H   0  0  0  0  0  0  0  0  0  0  0  0
  1  2  1  0
  2  3  1  0
  2  4  1  0
  2  5  1  0
M  END
