
     RDKit          3D

 13 12  0  0  0  0  0  0  0  0999 V2000
    2.2601    0.2563   -0.1635 C   0  0  0  0  0  0  0  0  0  0  0  0
    0.9990    0.2375   -0.7949 O   0  0  0  0  0  0  0  0  0  0  0  0
   -0.0071    0.0064    0.1671 C   0  0  0  0  0  0  0  0  0  0  0  0
   -1.2549   -0.0071   -0.4914 O   0  0  0  0  0  0  0  0  0  0  0  0
   -2.2817   -0.2369    0.4479 C   0  0  0  0  0  0  0  0  0  0  0  0
    2.3262    1.0798    0.5820 H   0  0  0  0  0  0  0  0  0  0  0  0
    2.4860   -0.7220    0.3163 H   0  0  0  0  0  0  0  0  0  0  0  0
    3.0378    0.4388   -0.9333 H   0  0  0  0  0  0  0  0  0  0  0  0
    0.0070    0.8225    0.9297 H   0  0  0  0  0  0  0  0  0  0  0  0
    0.1668   -0.9789    0.6639 H   0  0  0  0  0  0  0  0  0  0  0  0
   -2.3226    0.5749    1.2080 H   0  0  0  0  0  0  0  0  0  0  0  0
   -2.1628   -1.2269    0.9420 H   0  0  0  0  0  0  0  0  0  0  0  0
   -3.2539   -0.2442   -0.0862 H   0  0  0  0  0  0  0  0  0  0  0  0
  1  2  1  0
  2  3  1  0
  3  4  1  0
  4  5  1  0
  1  6  1  0
  1  7  1  0
  1  8  1  0
  3  9  1  0
  3 10  1  0
  5 11  1  0
  5 12  1  0
  5 13  1  0
M  END
