
     RDKit          3D

  8  7  0  0  0  0  0  0  0  0999 V2000
    0.8211   -0.0273   -0.0030 C   0  0  0  0  0  0  0  0  0  0  0  0
   -0.6944    0.0326   -0.1371 C   0  0  0  0  0  0  0  0  0  0  0  0
   -1.3311    1.4508    0.7327 Cl  0  0  0  0  0  0  0  0  0  0  0  0
   -1.4281   -1.4445    0.5364 Cl  0  0  0  0  0  0  0  0  0  0  0  0
    1.2153   -0.9075   -0.5537 H   0  0  0  0  0  0  0  0  0  0  0  0
    1.1113   -0.1095    1.0661 H   0  0  0  0  0  0  0  0  0  0  0  0
    1.2755    0.8909   -0.4318 H   0  0  0  0  0  0  0  0  0  0  0  0
   -0.9697    0.1145   -1.2096 H   0  0  0  0  0  0  0  0  0  0  0  0
  1  2  1  0
  2  3  1  0
  2  4  1  0
  1  5  1  0
  1  6  1  0
  1  7  1  0
  2  8  1  0
M  END
