
     RDKit          3D

 14 13  0  0  0  0  0  0  0  0999 V2000
    1.8774    0.5335    0.1167 C   0  0  0  0  0  0  0  0  0  0  0  0
    0.3586    0.6759    0.0801 C   0  0  0  0  0  0  0  0  0  0  0  0
   -0.3229   -0.6953   -0.0249 C   0  0  0  0  0  0  0  0  0  0  0  0
   -1.8489   -0.5787   -0.0246 C   0  0  0  0  0  0  0  0  0  0  0  0
   -2.4450    0.1548   -1.5382 Cl  0  0  0  0  0  0  0  0  0  0  0  0
    2.1877   -0.0678    0.9978 H   0  0  0  0  0  0  0  0  0  0  0  0
    2.2410    0.0412   -0.8103 H   0  0  0  0  0  0  0  0  0  0  0  0
    2.3433    1.5387    0.1912 H   0  0  0  0  0  0  0  0  0  0  0  0
    0.0816    1.3062   -0.7921 H   0  0  0  0  0  0  0  0  0  0  0  0
    0.0241    1.1911    1.0068 H   0  0  0  0  0  0  0  0  0  0  0  0
    0.0067   -1.2140   -0.9518 H   0  0  0  0  0  0  0  0  0  0  0  0
   -0.0194   -1.3192    0.8442 H   0  0  0  0  0  0  0  0  0  0  0  0
   -2.1927    0.0270    0.8408 H   0  0  0  0  0  0  0  0  0  0  0  0
   -2.2916   -1.5933    0.0643 H   0  0  0  0  0  0  0  0  0  0  0  0
  1  2  1  0
  2  3  1  0
  3  4  1  0
  4  5  1  0
  1  6  1  0
  1  7  1  0
  1  8  1  0
  2  9  1  0
  2 10  1  0
  3 11  1  0
  3 12  1  0
  4 13  1  0
  4 14  1  0
M  END
