
     RDKit          3D

  6  5  0  0  0  0  0  0  0  0999 V2000
    1.5070   -1.4330    0.2259 Cl  0  0  0  0  0  0  0  0  0  0  0  0
    0.5540    0.0217   -0.0187 C   0  0  0  0  0  0  0  0  0  0  0  0
    1.3719    1.5456   -0.3233 Cl  0  0  0  0  0  0  0  0  0  0  0  0
   -0.7772   -0.0304    0.0263 C   0  0  0  0  0  0  0  0  0  0  0  0
   -1.2862   -0.9704    0.2142 H   0  0  0  0  0  0  0  0  0  0  0  0
   -1.3695    0.8665   -0.1244 H   0  0  0  0  0  0  0  0  0  0  0  0
  1  2  1  0
  2  3  1  0
  2  4  2  3
  4  5  1  0
  4  6  1  0
M  END
