
     RDKit          3D

 11 10  0  0  0  0  0  0  0  0999 V2000
   -1.2337    0.1791   -0.3596 C   0  0  0  0  0  0  0  0  0  0  0  0
   -0.1129   -0.4010    0.5011 C   0  0  0  0  0  0  0  0  0  0  0  0
    1.2731   -0.0604   -0.0502 C   0  0  0  0  0  0  0  0  0  0  0  0
    1.6859    1.8234    0.1726 Br  0  0  0  0  0  0  0  0  0  0  0  0
   -1.1573   -0.2000   -1.4009 H   0  0  0  0  0  0  0  0  0  0  0  0
   -1.1875    1.2883   -0.3683 H   0  0  0  0  0  0  0  0  0  0  0  0
   -2.2163   -0.1275    0.0570 H   0  0  0  0  0  0  0  0  0  0  0  0
   -0.2247   -1.5065    0.5294 H   0  0  0  0  0  0  0  0  0  0  0  0
   -0.2064   -0.0206    1.5412 H   0  0  0  0  0  0  0  0  0  0  0  0
    2.0381   -0.6446    0.5035 H   0  0  0  0  0  0  0  0  0  0  0  0
    1.3418   -0.3302   -1.1257 H   0  0  0  0  0  0  0  0  0  0  0  0
  1  2  1  0
  2  3  1  0
  3  4  1  0
  1  5  1  0
  1  6  1  0
  1  7  1  0
  2  8  1  0
  2  9  1  0
  3 10  1  0
  3 11  1  0
M  END
