
     RDKit          3D

  8  7  0  0  0  0  0  0  0  0999 V2000
   -1.0770   -0.0961    0.0013 C   0  0  0  0  0  0  0  0  0  0  0  0
    0.1801   -0.6144   -0.4165 O   0  0  0  0  0  0  0  0  0  0  0  0
    1.3918   -0.0034   -0.0860 C   0  0  0  0  0  0  0  0  0  0  0  0
    1.4220    1.0488    0.6069 O   0  0  0  0  0  0  0  0  0  0  0  0
   -1.2199    0.9281   -0.4038 H   0  0  0  0  0  0  0  0  0  0  0  0
   -1.1288   -0.0716    1.1105 H   0  0  0  0  0  0  0  0  0  0  0  0
   -1.8868   -0.7504   -0.3819 H   0  0  0  0  0  0  0  0  0  0  0  0
    2.3186   -0.4410   -0.4307 H   0  0  0  0  0  0  0  0  0  0  0  0
  1  2  1  0
  2  3  1  0
  3  4  2  0
  1  5  1  0
  1  6  1  0
  1  7  1  0
  3  8  1  0
M  END
