
     RDKit          3D

  6  5  0  0  0  0  0  0  0  0999 V2000
   -0.4956    0.0001    0.0011 C   0  0  0  0  0  0  0  0  0  0  0  0
    0.9676   -0.0002   -0.0021 C   0  0  0  0  0  0  0  0  0  0  0  0
    2.1248   -0.0004   -0.0047 N   0  0  0  0  0  0  0  0  0  0  0  0
   -0.8675   -0.6463   -0.8204 H   0  0  0  0  0  0  0  0  0  0  0  0
   -0.8635   -0.3888    0.9728 H   0  0  0  0  0  0  0  0  0  0  0  0
   -0.8657    1.0355   -0.1468 H   0  0  0  0  0  0  0  0  0  0  0  0
  1  2  1  0
  2  3  3  0
  1  4  1  0
  1  5  1  0
  1  6  1  0
M  END
