
     RDKit          3D

  7  6  0  0  0  0  0  0  0  0999 V2000
   -0.8373    0.3796   -0.4824 C   0  0  0  0  0  0  0  0  0  0  0  0
    0.0971    0.2134    0.4469 C   0  0  0  0  0  0  0  0  0  0  0  0
    1.1379   -0.7644    0.2781 C   0  0  0  0  0  0  0  0  0  0  0  0
    1.9756   -1.5512    0.1427 N   0  0  0  0  0  0  0  0  0  0  0  0
   -0.8387   -0.2154   -1.3880 H   0  0  0  0  0  0  0  0  0  0  0  0
   -1.6144    1.1196   -0.3416 H   0  0  0  0  0  0  0  0  0  0  0  0
    0.0798    0.8185    1.3441 H   0  0  0  0  0  0  0  0  0  0  0  0
  1  2  2  3
  2  3  1  0
  3  4  3  0
  1  5  1  0
  1  6  1  0
  2  7  1  0
M  END
