
     RDKit          3D

  8  7  0  0  0  0  0  0  0  0999 V2000
   -1.6133    1.2644    0.8871 Br  0  0  0  0  0  0  0  0  0  0  0  0
   -0.7483   -0.2064   -0.0370 C   0  0  0  0  0  0  0  0  0  0  0  0
    0.7401    0.0629   -0.2284 C   0  0  0  0  0  0  0  0  0  0  0  0
    1.6856    0.0079    1.4653 Br  0  0  0  0  0  0  0  0  0  0  0  0
   -1.2306   -0.3236   -1.0303 H   0  0  0  0  0  0  0  0  0  0  0  0
   -0.8957   -1.1439    0.5395 H   0  0  0  0  0  0  0  0  0  0  0  0
    1.1716   -0.7160   -0.8919 H   0  0  0  0  0  0  0  0  0  0  0  0
    0.8907    1.0547   -0.7044 H   0  0  0  0  0  0  0  0  0  0  0  0
  1  2  1  0
  2  3  1  0
  3  4  1  0
  2  5  1  0
  2  6  1  0
  3  7  1  0
  3  8  1  0
M  END
