
     RDKit          3D

 11 10  0  0  0  0  0  0  0  0999 V2000
   -1.2414   -0.3295    0.1681 C   0  0  0  0  0  0  0  0  0  0  0  0
    0.0104    0.5446    0.1794 C   0  0  0  0  0  0  0  0  0  0  0  0
    1.2579   -0.2754   -0.1409 C   0  0  0  0  0  0  0  0  0  0  0  0
   -0.2001    2.1302   -1.2450 I   0  0  0  0  0  0  0  0  0  0  0  0
   -1.1519   -1.1381    0.9246 H   0  0  0  0  0  0  0  0  0  0  0  0
   -1.3887   -0.7847   -0.8345 H   0  0  0  0  0  0  0  0  0  0  0  0
   -2.1316    0.2860    0.4166 H   0  0  0  0  0  0  0  0  0  0  0  0
    0.1251    1.0004    1.1865 H   0  0  0  0  0  0  0  0  0  0  0  0
    2.1547    0.3788   -0.1134 H   0  0  0  0  0  0  0  0  0  0  0  0
    1.1758   -0.7292   -1.1517 H   0  0  0  0  0  0  0  0  0  0  0  0
    1.3898   -1.0831    0.6103 H   0  0  0  0  0  0  0  0  0  0  0  0
  1  2  1  0
  2  3  1  0
  2  4  1  0
  1  5  1  0
  1  6  1  0
  1  7  1  0
  2  8  1  0
  3  9  1  0
  3 10  1  0
  3 11  1  0
M  END
