
     RDKit          3D

 14 13  0  0  0  0  0  0  0  0999 V2000
   -2.0466   -0.3227    0.1972 C   0  0  0  0  0  0  0  0  0  0  0  0
   -1.0332    0.5815    0.8895 C   0  0  0  0  0  0  0  0  0  0  0  0
    0.2912    0.0825    0.7123 O   0  0  0  0  0  0  0  0  0  0  0  0
    1.0042    0.1989   -0.4861 C   0  0  0  0  0  0  0  0  0  0  0  0
    2.3751   -0.3788   -0.5831 C   0  0  0  0  0  0  0  0  0  0  0  0
    0.5219    0.8281   -1.4668 O   0  0  0  0  0  0  0  0  0  0  0  0
   -3.0741    0.0498    0.3930 H   0  0  0  0  0  0  0  0  0  0  0  0
   -1.8735   -0.3306   -0.8991 H   0  0  0  0  0  0  0  0  0  0  0  0
   -1.9587   -1.3586    0.5876 H   0  0  0  0  0  0  0  0  0  0  0  0
   -1.1118    1.6196    0.4993 H   0  0  0  0  0  0  0  0  0  0  0  0
   -1.2599    0.6042    1.9762 H   0  0  0  0  0  0  0  0  0  0  0  0
    3.1248    0.4083   -0.3593 H   0  0  0  0  0  0  0  0  0  0  0  0
    2.4891   -1.2086    0.1454 H   0  0  0  0  0  0  0  0  0  0  0  0
    2.5513   -0.7735   -1.6060 H   0  0  0  0  0  0  0  0  0  0  0  0
  1  2  1  0
  2  3  1  0
  3  4  1  0
  4  5  1  0
  4  6  2  0
  1  7  1  0
  1  8  1  0
  1  9  1  0
  2 10  1  0
  2 11  1  0
  5 12  1  0
  5 13  1  0
  5 14  1  0
M  END
