
     RDKit          3D

 11 10  0  0  0  0  0  0  0  0999 V2000
   -1.0561    0.6933    0.3334 C   0  0  0  0  0  0  0  0  0  0  0  0
   -0.2369   -0.5692    0.0635 C   0  0  0  0  0  0  0  0  0  0  0  0
   -0.9211   -1.4915   -1.5055 Br  0  0  0  0  0  0  0  0  0  0  0  0
    1.2620   -0.2715   -0.0801 C   0  0  0  0  0  0  0  0  0  0  0  0
    1.6714    0.8957   -1.5823 Br  0  0  0  0  0  0  0  0  0  0  0  0
   -0.6635    1.2233    1.2272 H   0  0  0  0  0  0  0  0  0  0  0  0
   -2.1142    0.4174    0.5274 H   0  0  0  0  0  0  0  0  0  0  0  0
   -1.0267    1.3789   -0.5390 H   0  0  0  0  0  0  0  0  0  0  0  0
   -0.3684   -1.2559    0.9277 H   0  0  0  0  0  0  0  0  0  0  0  0
    1.6406    0.2046    0.8493 H   0  0  0  0  0  0  0  0  0  0  0  0
    1.8129   -1.2252   -0.2217 H   0  0  0  0  0  0  0  0  0  0  0  0
  1  2  1  0
  2  3  1  0
  2  4  1  0
  4  5  1  0
  1  6  1  0
  1  7  1  0
  1  8  1  0
  2  9  1  0
  4 10  1  0
  4 11  1  0
M  END
