
RDKit          3D

 44 43  0  0  0  0  0  0  0  0999 V2000
  36.3129    30.8248    32.8288 C   0  0  0  0  0  0  0  0  0  0  0  0
  36.4868    29.2734    32.7669 C   0  0  0  0  0  0  0  0  0  0  0  0
  37.2160    28.9060    31.5864 C   0  0  0  0  0  0  0  0  0  0  0  0
  37.0740    27.4801    31.1498 C   0  0  0  0  0  0  0  0  0  0  0  0
  37.8085    26.9742    29.9828 C   0  0  0  0  0  0  0  0  0  0  0  0
  39.3237    26.6852    30.1446 C   0  0  0  0  0  0  0  0  0  0  0  0
  39.9706    26.3993    28.8331 C   0  0  0  0  0  0  0  0  0  0  0  0
  41.3937    26.0220    28.9756 C   0  0  0  0  0  0  0  0  0  0  0  0
  42.2963    26.6107    27.8901 C   0  0  0  0  0  0  0  0  0  0  0  0
  43.1768    27.8202    28.3611 C   0  0  0  0  0  0  0  0  0  0  0  0
  42.4442    29.0917    28.8226 C   0  0  0  0  0  0  0  0  0  0  0  0
  43.4610    30.0944    29.4254 C   0  0  0  0  0  0  0  0  0  0  0  0
  43.6830    30.0769    30.8974 C   0  0  0  0  0  0  0  0  0  0  0  0
  44.5697    31.2311    31.2460 C   0  0  0  0  0  0  0  0  0  0  0  0
  35.7200    31.0762    33.7074 H   0  0  0  0  0  0  0  0  0  0  0  0
  37.3142    31.2879    32.9479 H   0  0  0  0  0  0  0  0  0  0  0  0
  35.8288    31.3079    31.9729 H   0  0  0  0  0  0  0  0  0  0  0  0
  35.4811    28.8176    32.6741 H   0  0  0  0  0  0  0  0  0  0  0  0
  36.9916    28.8219    33.6392 H   0  0  0  0  0  0  0  0  0  0  0  0
  36.8846    29.5419    30.7497 H   0  0  0  0  0  0  0  0  0  0  0  0
  38.2933    29.1461    31.7062 H   0  0  0  0  0  0  0  0  0  0  0  0
  36.0174    27.2671    30.9661 H   0  0  0  0  0  0  0  0  0  0  0  0
  37.4483    26.8513    31.9777 H   0  0  0  0  0  0  0  0  0  0  0  0
  37.7076    27.6951    29.1566 H   0  0  0  0  0  0  0  0  0  0  0  0
  37.3209    26.0601    29.5906 H   0  0  0  0  0  0  0  0  0  0  0  0
  39.4659    25.8203    30.8177 H   0  0  0  0  0  0  0  0  0  0  0  0
  39.8411    27.5443    30.6274 H   0  0  0  0  0  0  0  0  0  0  0  0
  39.4249    25.5850    28.3142 H   0  0  0  0  0  0  0  0  0  0  0  0
  39.8796    27.2830    28.1697 H   0  0  0  0  0  0  0  0  0  0  0  0
  41.4907    24.9331    28.8822 H   0  0  0  0  0  0  0  0  0  0  0  0
  41.8043    26.2548    29.9730 H   0  0  0  0  0  0  0  0  0  0  0  0
  42.9791    25.8355    27.4943 H   0  0  0  0  0  0  0  0  0  0  0  0
  41.6773    26.9015    27.0320 H   0  0  0  0  0  0  0  0  0  0  0  0
  43.8505    28.0829    27.5330 H   0  0  0  0  0  0  0  0  0  0  0  0
  43.8125    27.5047    29.2127 H   0  0  0  0  0  0  0  0  0  0  0  0
  41.9845    29.5726    27.9598 H   0  0  0  0  0  0  0  0  0  0  0  0
  41.6557    28.8096    29.5414 H   0  0  0  0  0  0  0  0  0  0  0  0
  44.4302    29.9694    28.9046 H   0  0  0  0  0  0  0  0  0  0  0  0
  43.1049    31.1240    29.2218 H   0  0  0  0  0  0  0  0  0  0  0  0
  44.1340    29.1160    31.1715 H   0  0  0  0  0  0  0  0  0  0  0  0
  42.7075    30.1233    31.4097 H   0  0  0  0  0  0  0  0  0  0  0  0
  44.0954    32.2053    31.0486 H   0  0  0  0  0  0  0  0  0  0  0  0
  44.8194    31.2096    32.3177 H   0  0  0  0  0  0  0  0  0  0  0  0
  45.5174    31.1891    30.6863 H   0  0  0  0  0  0  0  0  0  0  0  0
  1  2  1  0
  2  3  1  0
  3  4  1  0
  4  5  1  0
  5  6  1  0
  6  7  1  0
  7  8  1  0
  8  9  1  0
  9 10  1  0
 10 11  1  0
 11 12  1  0
 12 13  1  0
 13 14  1  0
  1 15  1  0
  1 16  1  0
  1 17  1  0
  2 18  1  0
  2 19  1  0
  3 20  1  0
  3 21  1  0
  4 22  1  0
  4 23  1  0
  5 24  1  0
  5 25  1  0
  6 26  1  0
  6 27  1  0
  7 28  1  0
  7 29  1  0
  8 30  1  0
  8 31  1  0
  9 32  1  0
  9 33  1  0
 10 34  1  0
 10 35  1  0
 11 36  1  0
 11 37  1  0
 12 38  1  0
 12 39  1  0
 13 40  1  0
 13 41  1  0
 14 42  1  0
 14 43  1  0
 14 44  1  0
M  END