
     RDKit          3D

  9  8  0  0  0  0  0  0  0  0999 V2000
   -0.9199   -0.0645   -0.1120 C   0  0  0  0  0  0  0  0  0  0  0  0
    0.5618   -0.3394    0.1135 C   0  0  0  0  0  0  0  0  0  0  0  0
    1.3397    0.6655   -0.4775 O   0  0  0  0  0  0  0  0  0  0  0  0
   -1.1352   -0.0106   -1.2003 H   0  0  0  0  0  0  0  0  0  0  0  0
   -1.5244   -0.8817    0.3349 H   0  0  0  0  0  0  0  0  0  0  0  0
   -1.2067    0.8965    0.3652 H   0  0  0  0  0  0  0  0  0  0  0  0
    0.8248   -1.3137   -0.3500 H   0  0  0  0  0  0  0  0  0  0  0  0
    0.7742   -0.4077    1.2046 H   0  0  0  0  0  0  0  0  0  0  0  0
    1.2856    1.4555    0.1216 H   0  0  0  0  0  0  0  0  0  0  0  0
  1  2  1  0
  2  3  1  0
  1  4  1  0
  1  5  1  0
  1  6  1  0
  2  7  1  0
  2  8  1  0
  3  9  1  0
M  END
