
RDKit          3D

 35 34  0  0  0  0  0  0  0  0999 V2000
  53.1594     7.4253     3.8914 C   0  0  0  0  0  0  0  0  0  0  0  0
  52.6871     7.8614     2.4898 C   0  0  0  0  0  0  0  0  0  0  0  0
  52.5153     6.7297     1.4892 C   0  0  0  0  0  0  0  0  0  0  0  0
  51.9996     6.9558     0.1135 C   0  0  0  0  0  0  0  0  0  0  0  0
  51.4795     5.6724    -0.4679 C   0  0  0  0  0  0  0  0  0  0  0  0
  50.1734     5.2045     0.1686 C   0  0  0  0  0  0  0  0  0  0  0  0
  48.9892     6.1799    -0.1408 C   0  0  0  0  0  0  0  0  0  0  0  0
  47.5748     5.8715     0.3607 C   0  0  0  0  0  0  0  0  0  0  0  0
  46.5787     6.9348     0.0206 C   0  0  0  0  0  0  0  0  0  0  0  0
  45.3145     7.0948     0.8134 C   0  0  0  0  0  0  0  0  0  0  0  0
  45.6067     7.2488     2.2810 C   0  0  0  0  0  0  0  0  0  0  0  0
  52.4162     7.5732     4.6986 H   0  0  0  0  0  0  0  0  0  0  0  0
  53.5054     6.3835     3.9389 H   0  0  0  0  0  0  0  0  0  0  0  0
  54.0322     8.0667     4.1135 H   0  0  0  0  0  0  0  0  0  0  0  0
  53.4079     8.5967     2.0836 H   0  0  0  0  0  0  0  0  0  0  0  0
  51.7259     8.3933     2.5710 H   0  0  0  0  0  0  0  0  0  0  0  0
  51.8234     5.9754     1.9196 H   0  0  0  0  0  0  0  0  0  0  0  0
  53.4945     6.2231     1.4163 H   0  0  0  0  0  0  0  0  0  0  0  0
  52.8179     7.3975    -0.4966 H   0  0  0  0  0  0  0  0  0  0  0  0
  51.2172     7.7326     0.1309 H   0  0  0  0  0  0  0  0  0  0  0  0
  51.3394     5.7968    -1.5523 H   0  0  0  0  0  0  0  0  0  0  0  0
  52.2425     4.8830    -0.3468 H   0  0  0  0  0  0  0  0  0  0  0  0
  49.9537     4.2063    -0.2245 H   0  0  0  0  0  0  0  0  0  0  0  0
  50.3228     5.0899     1.2526 H   0  0  0  0  0  0  0  0  0  0  0  0
  48.9418     6.3521    -1.2284 H   0  0  0  0  0  0  0  0  0  0  0  0
  49.2326     7.1584     0.3015 H   0  0  0  0  0  0  0  0  0  0  0  0
  47.5939     5.7487     1.4531 H   0  0  0  0  0  0  0  0  0  0  0  0
  47.2778     4.9156    -0.0808 H   0  0  0  0  0  0  0  0  0  0  0  0
  46.3602     6.9395    -1.0586 H   0  0  0  0  0  0  0  0  0  0  0  0
  47.0311     7.9149     0.2384 H   0  0  0  0  0  0  0  0  0  0  0  0
  44.7652     6.1739     0.6374 H   0  0  0  0  0  0  0  0  0  0  0  0
  44.6641     7.9227     0.4918 H   0  0  0  0  0  0  0  0  0  0  0  0
  46.2084     8.1490     2.4891 H   0  0  0  0  0  0  0  0  0  0  0  0
  46.1391     6.3878     2.6813 H   0  0  0  0  0  0  0  0  0  0  0  0
  44.6811     7.3703     2.8577 H   0  0  0  0  0  0  0  0  0  0  0  0
  1  2  1  0
  2  3  1  0
  3  4  1  0
  4  5  1  0
  5  6  1  0
  6  7  1  0
  7  8  1  0
  8  9  1  0
  9 10  1  0
 10 11  1  0
  1 12  1  0
  1 13  1  0
  1 14  1  0
  2 15  1  0
  2 16  1  0
  3 17  1  0
  3 18  1  0
  4 19  1  0
  4 20  1  0
  5 21  1  0
  5 22  1  0
  6 23  1  0
  6 24  1  0
  7 25  1  0
  7 26  1  0
  8 27  1  0
  8 28  1  0
  9 29  1  0
  9 30  1  0
 10 31  1  0
 10 32  1  0
 11 33  1  0
 11 34  1  0
 11 35  1  0
M  END
