
     RDKit          3D

 14 13  0  0  0  0  0  0  0  0999 V2000
   -0.1829    1.4428   -0.0835 C   0  0  0  0  0  0  0  0  0  0  0  0
   -0.0487   -0.0503   -0.4018 C   0  0  0  0  0  0  0  0  0  0  0  0
    1.3445   -0.5604   -0.0182 C   0  0  0  0  0  0  0  0  0  0  0  0
   -1.1352   -0.8552    0.3195 C   0  0  0  0  0  0  0  0  0  0  0  0
   -1.1832    1.8122   -0.3953 H   0  0  0  0  0  0  0  0  0  0  0  0
   -0.0563    1.6252    1.0055 H   0  0  0  0  0  0  0  0  0  0  0  0
    0.5868    2.0226   -0.6363 H   0  0  0  0  0  0  0  0  0  0  0  0
   -0.1817   -0.1873   -1.4977 H   0  0  0  0  0  0  0  0  0  0  0  0
    2.1247    0.0056   -0.5706 H   0  0  0  0  0  0  0  0  0  0  0  0
    1.4450   -1.6346   -0.2830 H   0  0  0  0  0  0  0  0  0  0  0  0
    1.5197   -0.4416    1.0729 H   0  0  0  0  0  0  0  0  0  0  0  0
   -1.0518   -1.9315    0.0570 H   0  0  0  0  0  0  0  0  0  0  0  0
   -2.1420   -0.5016    0.0104 H   0  0  0  0  0  0  0  0  0  0  0  0
   -1.0389   -0.7458    1.4213 H   0  0  0  0  0  0  0  0  0  0  0  0
  1  2  1  0
  2  3  1  0
  2  4  1  0
  1  5  1  0
  1  6  1  0
  1  7  1  0
  2  8  1  0
  3  9  1  0
  3 10  1  0
  3 11  1  0
  4 12  1  0
  4 13  1  0
  4 14  1  0
M  END
