
RDKit          3D

 32 31  0  0  0  0  0  0  0  0999 V2000
    6.1620   40.6409    37.0365 C   0  0  0  0  0  0  0  0  0  0  0  0
    7.3874   41.4421    36.6408 C   0  0  0  0  0  0  0  0  0  0  0  0
    7.4763   41.6952    35.1003 C   0  0  0  0  0  0  0  0  0  0  0  0
    7.8518   43.0950    34.5736 C   0  0  0  0  0  0  0  0  0  0  0  0
    6.9096   44.0803    35.1501 C   0  0  0  0  0  0  0  0  0  0  0  0
    5.3898   43.9268    34.8254 C   0  0  0  0  0  0  0  0  0  0  0  0
    4.8844   43.8291    33.3685 C   0  0  0  0  0  0  0  0  0  0  0  0
    3.3716   43.6190    33.1759 C   0  0  0  0  0  0  0  0  0  0  0  0
    2.8555   42.2515    33.3538 C   0  0  0  0  0  0  0  0  0  0  0  0
    1.3095   42.2760    33.3458 C   0  0  0  0  0  0  0  0  0  0  0  0
    6.1083   40.4641    38.1206 H   0  0  0  0  0  0  0  0  0  0  0  0
    5.2374   41.1530    36.7333 H   0  0  0  0  0  0  0  0  0  0  0  0
    6.1378   39.6558    36.5456 H   0  0  0  0  0  0  0  0  0  0  0  0
    7.3719   42.4204    37.1526 H   0  0  0  0  0  0  0  0  0  0  0  0
    8.3120   40.9278    36.9431 H   0  0  0  0  0  0  0  0  0  0  0  0
    6.5349   41.4146    34.6061 H   0  0  0  0  0  0  0  0  0  0  0  0
    8.2529   40.9989    34.7264 H   0  0  0  0  0  0  0  0  0  0  0  0
    7.8926   43.0615    33.4794 H   0  0  0  0  0  0  0  0  0  0  0  0
    8.8706   43.3531    34.9089 H   0  0  0  0  0  0  0  0  0  0  0  0
    7.0264   44.0905    36.2432 H   0  0  0  0  0  0  0  0  0  0  0  0
    7.2265   45.0897    34.8151 H   0  0  0  0  0  0  0  0  0  0  0  0
    4.8595   44.7717    35.3124 H   0  0  0  0  0  0  0  0  0  0  0  0
    5.0732   43.0008    35.3348 H   0  0  0  0  0  0  0  0  0  0  0  0
    5.1638   42.9129    32.8285 H   0  0  0  0  0  0  0  0  0  0  0  0
    5.3771   44.6913    32.8552 H   0  0  0  0  0  0  0  0  0  0  0  0
    3.1064   44.0201    32.1865 H   0  0  0  0  0  0  0  0  0  0  0  0
    2.8284   44.2456    33.9110 H   0  0  0  0  0  0  0  0  0  0  0  0
    3.2520   41.8142    34.2891 H   0  0  0  0  0  0  0  0  0  0  0  0
    3.2374   41.6104    32.5415 H   0  0  0  0  0  0  0  0  0  0  0  0
    0.8920   42.7233    32.4307 H   0  0  0  0  0  0  0  0  0  0  0  0
    0.8900   41.2617    33.4907 H   0  0  0  0  0  0  0  0  0  0  0  0
    0.9071   42.8942    34.1732 H   0  0  0  0  0  0  0  0  0  0  0  0
  1  2  1  0
  2  3  1  0
  3  4  1  0
  4  5  1  0
  5  6  1  0
  6  7  1  0
  7  8  1  0
  8  9  1  0
  9 10  1  0
  1 11  1  0
  1 12  1  0
  1 13  1  0
  2 14  1  0
  2 15  1  0
  3 16  1  0
  3 17  1  0
  4 18  1  0
  4 19  1  0
  5 20  1  0
  5 21  1  0
  6 22  1  0
  6 23  1  0
  7 24  1  0
  7 25  1  0
  8 26  1  0
  8 27  1  0
  9 28  1  0
  9 29  1  0
 10 30  1  0
 10 31  1  0
 10 32  1  0
M  END