
     RDKit          3D

  4  3  0  0  0  0  0  0  0  0999 V2000
   -0.0321    0.0056   -0.0087 C   0  0  0  0  0  0  0  0  0  0  0  0
    1.1287   -0.1956    0.3061 O   0  0  0  0  0  0  0  0  0  0  0  0
   -0.6976   -0.8313   -0.1899 H   0  0  0  0  0  0  0  0  0  0  0  0
   -0.3989    1.0213   -0.1075 H   0  0  0  0  0  0  0  0  0  0  0  0
  1  2  2  0
  1  3  1  0
  1  4  1  0
M  END
