
     RDKit          3D

 10  9  0  0  0  0  0  0  0  0999 V2000
    0.9711   -1.6078    0.3377 S   0  0  0  0  0  0  0  0  0  0  0  0
   -0.5901   -0.6837    0.1646 C   0  0  0  0  0  0  0  0  0  0  0  0
   -0.3453    0.7628   -0.2651 C   0  0  0  0  0  0  0  0  0  0  0  0
    0.3952    1.7418    1.0824 S   0  0  0  0  0  0  0  0  0  0  0  0
    1.2508   -1.5509   -1.0412 H   0  0  0  0  0  0  0  0  0  0  0  0
   -1.2165   -1.1916   -0.5992 H   0  0  0  0  0  0  0  0  0  0  0  0
   -1.1374   -0.7053    1.1307 H   0  0  0  0  0  0  0  0  0  0  0  0
    0.3088    0.7993   -1.1622 H   0  0  0  0  0  0  0  0  0  0  0  0
   -1.3188    1.2266   -0.5298 H   0  0  0  0  0  0  0  0  0  0  0  0
    1.6823    1.2086    0.8822 H   0  0  0  0  0  0  0  0  0  0  0  0
  1  2  1  0
  2  3  1  0
  3  4  1  0
  1  5  1  0
  2  6  1  0
  2  7  1  0
  3  8  1  0
  3  9  1  0
  4 10  1  0
M  END
