
     RDKit          3D

 10  9  0  0  0  0  0  0  0  0999 V2000
    1.7857    0.1387    0.1014 C   0  0  0  0  0  0  0  0  0  0  0  0
    0.7155   -1.2258    0.6474 S   0  0  0  0  0  0  0  0  0  0  0  0
   -0.6454   -0.9817   -0.9792 S   0  0  0  0  0  0  0  0  0  0  0  0
   -1.7916    0.0450   -0.0109 C   0  0  0  0  0  0  0  0  0  0  0  0
    2.1757   -0.0700   -0.9165 H   0  0  0  0  0  0  0  0  0  0  0  0
    1.2185    1.0922    0.0970 H   0  0  0  0  0  0  0  0  0  0  0  0
    2.6403    0.2322    0.8024 H   0  0  0  0  0  0  0  0  0  0  0  0
   -1.2841    0.9724    0.3257 H   0  0  0  0  0  0  0  0  0  0  0  0
   -2.1569   -0.5230    0.8698 H   0  0  0  0  0  0  0  0  0  0  0  0
   -2.6578    0.3200   -0.6468 H   0  0  0  0  0  0  0  0  0  0  0  0
  1  2  1  0
  2  3  1  0
  3  4  1  0
  1  5  1  0
  1  6  1  0
  1  7  1  0
  4  8  1  0
  4  9  1  0
  4 10  1  0
M  END
