
     RDKit          3D

  5  4  0  0  0  0  0  0  0  0999 V2000
    0.8477   -0.5041    0.0024 O   0  0  0  0  0  0  0  0  0  0  0  0
   -0.4679   -0.0549    0.0202 C   0  0  0  0  0  0  0  0  0  0  0  0
   -0.7201    1.1765   -0.0506 O   0  0  0  0  0  0  0  0  0  0  0  0
    1.6186    0.1494   -0.0674 H   0  0  0  0  0  0  0  0  0  0  0  0
   -1.2783   -0.7669    0.0953 H   0  0  0  0  0  0  0  0  0  0  0  0
  1  2  1  0
  2  3  2  0
  1  4  1  0
  2  5  1  0
M  END
