
     RDKit          3D

 18 17  0  0  0  0  0  0  0  0999 V2000
    2.1479   -0.5183   -0.1838 C   0  0  0  0  0  0  0  0  0  0  0  0
    1.3962    0.6253    0.5011 C   0  0  0  0  0  0  0  0  0  0  0  0
   -0.0876    0.7463    0.0922 C   0  0  0  0  0  0  0  0  0  0  0  0
   -0.2115    1.0203   -1.2828 O   0  0  0  0  0  0  0  0  0  0  0  0
   -0.9282   -0.4801    0.5141 C   0  0  0  0  0  0  0  0  0  0  0  0
   -2.4219   -0.2365    0.3083 C   0  0  0  0  0  0  0  0  0  0  0  0
    1.7002   -1.4995    0.0758 H   0  0  0  0  0  0  0  0  0  0  0  0
    3.2025   -0.5209    0.1637 H   0  0  0  0  0  0  0  0  0  0  0  0
    2.1507   -0.3868   -1.2856 H   0  0  0  0  0  0  0  0  0  0  0  0
    1.9113    1.5798    0.2569 H   0  0  0  0  0  0  0  0  0  0  0  0
    1.4628    0.4880    1.6025 H   0  0  0  0  0  0  0  0  0  0  0  0
   -0.4883    1.6275    0.6402 H   0  0  0  0  0  0  0  0  0  0  0  0
   -0.0584    0.1755   -1.7800 H   0  0  0  0  0  0  0  0  0  0  0  0
   -0.6320   -1.3764   -0.0715 H   0  0  0  0  0  0  0  0  0  0  0  0
   -0.7526   -0.6980    1.5901 H   0  0  0  0  0  0  0  0  0  0  0  0
   -2.7577    0.6365    0.9074 H   0  0  0  0  0  0  0  0  0  0  0  0
   -2.9925   -1.1309    0.6361 H   0  0  0  0  0  0  0  0  0  0  0  0
   -2.6409   -0.0517   -0.7647 H   0  0  0  0  0  0  0  0  0  0  0  0
  1  2  1  0
  2  3  1  0
  3  4  1  0
  3  5  1  0
  5  6  1  0
  1  7  1  0
  1  8  1  0
  1  9  1  0
  2 10  1  0
  2 11  1  0
  3 12  1  0
  4 13  1  0
  5 14  1  0
  5 15  1  0
  6 16  1  0
  6 17  1  0
  6 18  1  0
M  END
