
     RDKit          3D

  5  4  0  0  0  0  0  0  0  0999 V2000
   -0.1648    0.0003   -0.0018 C   0  0  0  0  0  0  0  0  0  0  0  0
    1.7685   -0.0033    0.0196 Br  0  0  0  0  0  0  0  0  0  0  0  0
   -0.5271   -0.6816   -0.7984 H   0  0  0  0  0  0  0  0  0  0  0  0
   -0.5305    1.0286   -0.2008 H   0  0  0  0  0  0  0  0  0  0  0  0
   -0.5461   -0.3440    0.9814 H   0  0  0  0  0  0  0  0  0  0  0  0
  1  2  1  0
  1  3  1  0
  1  4  1  0
  1  5  1  0
M  END
