
     RDKit          3D

 12 11  0  0  0  0  0  0  0  0999 V2000
    1.8529    0.2112    0.5423 N   0  0  0  0  0  0  0  0  0  0  0  0
    0.4338    0.5591    0.5666 C   0  0  0  0  0  0  0  0  0  0  0  0
   -0.3978   -0.4280   -0.2607 C   0  0  0  0  0  0  0  0  0  0  0  0
   -1.8111   -0.0698   -0.1986 N   0  0  0  0  0  0  0  0  0  0  0  0
    1.9701   -0.7568    0.9214 H   0  0  0  0  0  0  0  0  0  0  0  0
    2.1825    0.2063   -0.4505 H   0  0  0  0  0  0  0  0  0  0  0  0
    0.3060    1.5868    0.1624 H   0  0  0  0  0  0  0  0  0  0  0  0
    0.0767    0.5556    1.6194 H   0  0  0  0  0  0  0  0  0  0  0  0
   -0.0532   -0.4214   -1.3192 H   0  0  0  0  0  0  0  0  0  0  0  0
   -0.2642   -1.4538    0.1477 H   0  0  0  0  0  0  0  0  0  0  0  0
   -2.3488   -0.8079   -0.7082 H   0  0  0  0  0  0  0  0  0  0  0  0
   -1.9470    0.8186   -0.7341 H   0  0  0  0  0  0  0  0  0  0  0  0
  1  2  1  0
  2  3  1  0
  3  4  1  0
  1  5  1  0
  1  6  1  0
  2  7  1  0
  2  8  1  0
  3  9  1  0
  3 10  1  0
  4 11  1  0
  4 12  1  0
M  END
