
     RDKit          3D

  9  8  0  0  0  0  0  0  0  0999 V2000
   -1.0682   -0.0499    0.6269 C   0  0  0  0  0  0  0  0  0  0  0  0
    0.2526    0.5170    0.2202 C   0  0  0  0  0  0  0  0  0  0  0  0
    1.2603   -0.3316   -0.3277 N   0  0  0  0  0  0  0  0  0  0  0  0
    0.4897    1.7428    0.3887 O   0  0  0  0  0  0  0  0  0  0  0  0
   -0.9438   -0.6493    1.5526 H   0  0  0  0  0  0  0  0  0  0  0  0
   -1.7996    0.7643    0.8169 H   0  0  0  0  0  0  0  0  0  0  0  0
   -1.4616   -0.7019   -0.1808 H   0  0  0  0  0  0  0  0  0  0  0  0
    2.1879    0.0609   -0.6031 H   0  0  0  0  0  0  0  0  0  0  0  0
    1.0826   -1.3523   -0.4572 H   0  0  0  0  0  0  0  0  0  0  0  0
  1  2  1  0
  2  3  1  0
  2  4  2  0
  1  5  1  0
  1  6  1  0
  1  7  1  0
  3  8  1  0
  3  9  1  0
M  END
