
     RDKit          3D

 28 27  0  0  0  0  0  0  0  0999 V2000
   -4.4895   -0.3281    0.5588 C   0  0  0  0  0  0  0  0  0  0  0  0
   -3.4338    0.0713   -0.4055 C   0  0  0  0  0  0  0  0  0  0  0  0
   -2.0373   -0.4644   -0.0353 C   0  0  0  0  0  0  0  0  0  0  0  0
   -1.1405    0.0745   -1.0884 C   0  0  0  0  0  0  0  0  0  0  0  0
    0.2560   -0.1936   -0.9911 N   0  0  0  0  0  0  0  0  0  0  0  0
    0.8571    0.4843    0.1471 C   0  0  0  0  0  0  0  0  0  0  0  0
    2.3289    0.6259    0.0768 C   0  0  0  0  0  0  0  0  0  0  0  0
    3.1540   -0.6166   -0.0103 C   0  0  0  0  0  0  0  0  0  0  0  0
    4.6150   -0.0954   -0.0905 C   0  0  0  0  0  0  0  0  0  0  0  0
   -4.1795   -0.1591    1.6281 H   0  0  0  0  0  0  0  0  0  0  0  0
   -5.3534    0.3925    0.4061 H   0  0  0  0  0  0  0  0  0  0  0  0
   -4.8830   -1.3219    0.3658 H   0  0  0  0  0  0  0  0  0  0  0  0
   -3.3350    1.1746   -0.5265 H   0  0  0  0  0  0  0  0  0  0  0  0
   -3.6550   -0.3553   -1.4040 H   0  0  0  0  0  0  0  0  0  0  0  0
   -2.0688   -1.5599    0.0157 H   0  0  0  0  0  0  0  0  0  0  0  0
   -1.8012   -0.0873    0.9732 H   0  0  0  0  0  0  0  0  0  0  0  0
   -1.4740   -0.4268   -2.0607 H   0  0  0  0  0  0  0  0  0  0  0  0
   -1.3658    1.1474   -1.2694 H   0  0  0  0  0  0  0  0  0  0  0  0
    0.7265    0.1934   -1.8380 H   0  0  0  0  0  0  0  0  0  0  0  0
    0.6220   -0.2055    1.0214 H   0  0  0  0  0  0  0  0  0  0  0  0
    0.4033    1.4447    0.3794 H   0  0  0  0  0  0  0  0  0  0  0  0
    2.7337    1.2166    0.9535 H   0  0  0  0  0  0  0  0  0  0  0  0
    2.6193    1.2463   -0.8269 H   0  0  0  0  0  0  0  0  0  0  0  0
    3.0264   -1.1760   -0.9539 H   0  0  0  0  0  0  0  0  0  0  0  0
    3.0936   -1.2693    0.8897 H   0  0  0  0  0  0  0  0  0  0  0  0
    5.3380   -0.8836    0.0592 H   0  0  0  0  0  0  0  0  0  0  0  0
    4.7020    0.7673    0.5931 H   0  0  0  0  0  0  0  0  0  0  0  0
    4.7409    0.3040   -1.1309 H   0  0  0  0  0  0  0  0  0  0  0  0
  1  2  1  0
  2  3  1  0
  3  4  1  0
  4  5  1  0
  5  6  1  0
  6  7  1  0
  7  8  1  0
  8  9  1  0
  1 10  1  0
  1 11  1  0
  1 12  1  0
  2 13  1  0
  2 14  1  0
  3 15  1  0
  3 16  1  0
  4 17  1  0
  4 18  1  0
  5 19  1  0
  6 20  1  0
  6 21  1  0
  7 22  1  0
  7 23  1  0
  8 24  1  0
  8 25  1  0
  9 26  1  0
  9 27  1  0
  9 28  1  0
M  END
