
     RDKit          3D

 23 22  0  0  0  0  0  0  0  0999 V2000
    3.8033   -1.4890   -0.0895 C   0  0  0  0  0  0  0  0  0  0  0  0
    2.6254   -0.9079    0.4295 O   0  0  0  0  0  0  0  0  0  0  0  0
    2.4115    0.2483   -0.3030 C   0  0  0  0  0  0  0  0  0  0  0  0
    1.1761    0.9916    0.1362 C   0  0  0  0  0  0  0  0  0  0  0  0
    0.0178    0.2283    0.0046 O   0  0  0  0  0  0  0  0  0  0  0  0
   -1.0397    1.0161    0.4368 C   0  0  0  0  0  0  0  0  0  0  0  0
   -2.3702    0.3013    0.3459 C   0  0  0  0  0  0  0  0  0  0  0  0
   -2.6867   -0.0854   -0.9283 O   0  0  0  0  0  0  0  0  0  0  0  0
   -3.9228   -0.7281   -0.8900 C   0  0  0  0  0  0  0  0  0  0  0  0
    3.6687   -1.7251   -1.1773 H   0  0  0  0  0  0  0  0  0  0  0  0
    4.6046   -0.7349    0.0206 H   0  0  0  0  0  0  0  0  0  0  0  0
    4.0825   -2.4059    0.4634 H   0  0  0  0  0  0  0  0  0  0  0  0
    2.2856   -0.0439   -1.3672 H   0  0  0  0  0  0  0  0  0  0  0  0
    3.2571    0.9602   -0.2401 H   0  0  0  0  0  0  0  0  0  0  0  0
    1.1196    1.9117   -0.4976 H   0  0  0  0  0  0  0  0  0  0  0  0
    1.2481    1.3237    1.1827 H   0  0  0  0  0  0  0  0  0  0  0  0
   -0.8751    1.3236    1.4900 H   0  0  0  0  0  0  0  0  0  0  0  0
   -1.0326    1.9399   -0.1813 H   0  0  0  0  0  0  0  0  0  0  0  0
   -2.3681   -0.5399    1.0560 H   0  0  0  0  0  0  0  0  0  0  0  0
   -3.1410    1.0367    0.6817 H   0  0  0  0  0  0  0  0  0  0  0  0
   -4.2511   -1.0752   -1.8987 H   0  0  0  0  0  0  0  0  0  0  0  0
   -4.6776    0.0174   -0.5044 H   0  0  0  0  0  0  0  0  0  0  0  0
   -3.9356   -1.5635   -0.1497 H   0  0  0  0  0  0  0  0  0  0  0  0
  1  2  1  0
  2  3  1  0
  3  4  1  0
  4  5  1  0
  5  6  1  0
  6  7  1  0
  7  8  1  0
  8  9  1  0
  1 10  1  0
  1 11  1  0
  1 12  1  0
  3 13  1  0
  3 14  1  0
  4 15  1  0
  4 16  1  0
  6 17  1  0
  6 18  1  0
  7 19  1  0
  7 20  1  0
  9 21  1  0
  9 22  1  0
  9 23  1  0
M  END
