
     RDKit          3D

 11 10  0  0  0  0  0  0  0  0999 V2000
    1.9309    0.0034    0.3974 C   0  0  0  0  0  0  0  0  0  0  0  0
    0.5627   -0.0211    0.7859 O   0  0  0  0  0  0  0  0  0  0  0  0
   -0.4833    0.0308   -0.1396 C   0  0  0  0  0  0  0  0  0  0  0  0
   -1.8938   -0.0198    0.3410 C   0  0  0  0  0  0  0  0  0  0  0  0
   -0.2469    0.0779   -1.3776 O   0  0  0  0  0  0  0  0  0  0  0  0
    2.1581   -0.8700   -0.2500 H   0  0  0  0  0  0  0  0  0  0  0  0
    2.5683   -0.0456    1.3039 H   0  0  0  0  0  0  0  0  0  0  0  0
    2.1541    0.9441   -0.1493 H   0  0  0  0  0  0  0  0  0  0  0  0
   -2.5352    0.6311   -0.2899 H   0  0  0  0  0  0  0  0  0  0  0  0
   -2.2656   -1.0641    0.2873 H   0  0  0  0  0  0  0  0  0  0  0  0
   -1.9494    0.3332    1.3921 H   0  0  0  0  0  0  0  0  0  0  0  0
  1  2  1  0
  2  3  1  0
  3  4  1  0
  3  5  2  0
  1  6  1  0
  1  7  1  0
  1  8  1  0
  4  9  1  0
  4 10  1  0
  4 11  1  0
M  END
