
     RDKit          3D

  6  5  0  0  0  0  0  0  0  0999 V2000
   -0.7167    0.0353    0.1497 N   0  0  0  0  0  0  0  0  0  0  0  0
    0.6682   -0.0727   -0.1663 C   0  0  0  0  0  0  0  0  0  0  0  0
    1.4844    0.7833    0.2641 O   0  0  0  0  0  0  0  0  0  0  0  0
   -1.0667    0.8228    0.7392 H   0  0  0  0  0  0  0  0  0  0  0  0
   -1.3907   -0.6764   -0.2089 H   0  0  0  0  0  0  0  0  0  0  0  0
    1.0215   -0.8922   -0.7779 H   0  0  0  0  0  0  0  0  0  0  0  0
  1  2  1  0
  2  3  2  0
  1  4  1  0
  1  5  1  0
  2  6  1  0
M  END
