
     RDKit          3D

 18 17  0  0  0  0  0  0  0  0999 V2000
    2.9320    0.8145   -0.5783 O   0  0  0  0  0  0  0  0  0  0  0  0
    2.1820    0.6353    0.5928 C   0  0  0  0  0  0  0  0  0  0  0  0
    0.9171   -0.1739    0.3048 C   0  0  0  0  0  0  0  0  0  0  0  0
    0.0828    0.5296   -0.6787 N   0  0  0  0  0  0  0  0  0  0  0  0
   -0.9647   -0.3348   -1.2473 C   0  0  0  0  0  0  0  0  0  0  0  0
   -2.0754   -0.6836   -0.2419 C   0  0  0  0  0  0  0  0  0  0  0  0
   -2.6830    0.4749    0.2626 O   0  0  0  0  0  0  0  0  0  0  0  0
    3.3834   -0.0506   -0.7616 H   0  0  0  0  0  0  0  0  0  0  0  0
    1.9008    1.6318    0.9950 H   0  0  0  0  0  0  0  0  0  0  0  0
    2.7920    0.1176    1.3676 H   0  0  0  0  0  0  0  0  0  0  0  0
    1.2173   -1.1755   -0.0761 H   0  0  0  0  0  0  0  0  0  0  0  0
    0.3602   -0.3083    1.2579 H   0  0  0  0  0  0  0  0  0  0  0  0
   -0.3563    1.3641   -0.2240 H   0  0  0  0  0  0  0  0  0  0  0  0
   -1.4226    0.1912   -2.1125 H   0  0  0  0  0  0  0  0  0  0  0  0
   -0.5172   -1.2713   -1.6468 H   0  0  0  0  0  0  0  0  0  0  0  0
   -1.6604   -1.2724    0.6015 H   0  0  0  0  0  0  0  0  0  0  0  0
   -2.8357   -1.3254   -0.7419 H   0  0  0  0  0  0  0  0  0  0  0  0
   -3.2524    0.8369   -0.4658 H   0  0  0  0  0  0  0  0  0  0  0  0
  1  2  1  0
  2  3  1  0
  3  4  1  0
  4  5  1  0
  5  6  1  0
  6  7  1  0
  1  8  1  0
  2  9  1  0
  2 10  1  0
  3 11  1  0
  3 12  1  0
  4 13  1  0
  5 14  1  0
  5 15  1  0
  6 16  1  0
  6 17  1  0
  7 18  1  0
M  END
