
     RDKit          3D

  8  7  0  0  0  0  0  0  0  0999 V2000
    1.5732    0.6010   -1.2857 Cl  0  0  0  0  0  0  0  0  0  0  0  0
    0.7553   -0.1191    0.1306 C   0  0  0  0  0  0  0  0  0  0  0  0
    1.1243   -1.8633    0.1926 Cl  0  0  0  0  0  0  0  0  0  0  0  0
   -0.7607    0.1138    0.1004 C   0  0  0  0  0  0  0  0  0  0  0  0
   -1.5106   -0.5389   -1.3845 Cl  0  0  0  0  0  0  0  0  0  0  0  0
   -1.1342    1.8536    0.2261 Cl  0  0  0  0  0  0  0  0  0  0  0  0
    1.1757    0.3467    1.0469 H   0  0  0  0  0  0  0  0  0  0  0  0
   -1.2231   -0.3937    0.9735 H   0  0  0  0  0  0  0  0  0  0  0  0
  1  2  1  0
  2  3  1  0
  2  4  1  0
  4  5  1  0
  4  6  1  0
  2  7  1  0
  4  8  1  0
M  END
