
     RDKit          3D

 14 13  0  0  0  0  0  0  0  0999 V2000
   -2.0861   -1.1008    1.4162 Cl  0  0  0  0  0  0  0  0  0  0  0  0
   -1.6773    0.1777    0.2404 C   0  0  0  0  0  0  0  0  0  0  0  0
   -0.6275   -0.3000   -0.7699 C   0  0  0  0  0  0  0  0  0  0  0  0
    0.7468   -0.5991   -0.1455 C   0  0  0  0  0  0  0  0  0  0  0  0
    1.4750    0.6656    0.3159 C   0  0  0  0  0  0  0  0  0  0  0  0
    3.1221    0.2563    0.8580 Cl  0  0  0  0  0  0  0  0  0  0  0  0
   -1.3317    1.0829    0.7796 H   0  0  0  0  0  0  0  0  0  0  0  0
   -2.6053    0.4463   -0.3071 H   0  0  0  0  0  0  0  0  0  0  0  0
   -1.0043   -1.2234   -1.2611 H   0  0  0  0  0  0  0  0  0  0  0  0
   -0.5125    0.4690   -1.5646 H   0  0  0  0  0  0  0  0  0  0  0  0
    1.3703   -1.1020   -0.9166 H   0  0  0  0  0  0  0  0  0  0  0  0
    0.6412   -1.3035    0.7070 H   0  0  0  0  0  0  0  0  0  0  0  0
    1.5485    1.3948   -0.5187 H   0  0  0  0  0  0  0  0  0  0  0  0
    0.9407    1.1362    1.1664 H   0  0  0  0  0  0  0  0  0  0  0  0
  1  2  1  0
  2  3  1  0
  3  4  1  0
  4  5  1  0
  5  6  1  0
  2  7  1  0
  2  8  1  0
  3  9  1  0
  3 10  1  0
  4 11  1  0
  4 12  1  0
  5 13  1  0
  5 14  1  0
M  END
