
     RDKit          3D

 12 11  0  0  0  0  0  0  0  0999 V2000
   -1.9322   -0.0482   -0.1260 C   0  0  0  0  0  0  0  0  0  0  0  0
   -0.5212   -0.3124   -0.3777 N   0  0  0  0  0  0  0  0  0  0  0  0
    0.5134    0.3263    0.3795 C   0  0  0  0  0  0  0  0  0  0  0  0
    1.9467    0.0188    0.0912 C   0  0  0  0  0  0  0  0  0  0  0  0
    0.2214    1.1310    1.3053 O   0  0  0  0  0  0  0  0  0  0  0  0
   -2.1880   -0.3306    0.9169 H   0  0  0  0  0  0  0  0  0  0  0  0
   -2.1472    1.0298   -0.2828 H   0  0  0  0  0  0  0  0  0  0  0  0
   -2.5579   -0.6444   -0.8232 H   0  0  0  0  0  0  0  0  0  0  0  0
   -0.2608   -0.9869   -1.1323 H   0  0  0  0  0  0  0  0  0  0  0  0
    2.1707   -1.0232    0.4009 H   0  0  0  0  0  0  0  0  0  0  0  0
    2.6143    0.7130    0.6446 H   0  0  0  0  0  0  0  0  0  0  0  0
    2.1409    0.1268   -0.9963 H   0  0  0  0  0  0  0  0  0  0  0  0
  1  2  1  0
  2  3  1  0
  3  4  1  0
  3  5  2  0
  1  6  1  0
  1  7  1  0
  1  8  1  0
  2  9  1  0
  4 10  1  0
  4 11  1  0
  4 12  1  0
M  END
