
     RDKit          3D

 12 11  0  0  0  0  0  0  0  0999 V2000
    2.2743   -0.1876   -0.1670 C   0  0  0  0  0  0  0  0  0  0  0  0
    0.9435    0.4845   -0.1515 C   0  0  0  0  0  0  0  0  0  0  0  0
    0.8822    1.7442   -0.1473 O   0  0  0  0  0  0  0  0  0  0  0  0
   -0.2190   -0.2918   -0.1887 O   0  0  0  0  0  0  0  0  0  0  0  0
   -1.5022    0.2588   -0.1923 C   0  0  0  0  0  0  0  0  0  0  0  0
   -2.5626   -0.5372   -0.2300 C   0  0  0  0  0  0  0  0  0  0  0  0
    2.9904    0.3695    0.4733 H   0  0  0  0  0  0  0  0  0  0  0  0
    2.6603   -0.2197   -1.2070 H   0  0  0  0  0  0  0  0  0  0  0  0
    2.1805   -1.2243    0.2189 H   0  0  0  0  0  0  0  0  0  0  0  0
   -1.6461    1.3324   -0.1644 H   0  0  0  0  0  0  0  0  0  0  0  0
   -3.5596   -0.1162   -0.2329 H   0  0  0  0  0  0  0  0  0  0  0  0
   -2.4417   -1.6126   -0.2582 H   0  0  0  0  0  0  0  0  0  0  0  0
  1  2  1  0
  2  3  2  0
  2  4  1  0
  4  5  1  0
  5  6  2  3
  1  7  1  0
  1  8  1  0
  1  9  1  0
  5 10  1  0
  6 11  1  0
  6 12  1  0
M  END
