
     RDKit          3D

 16 15  0  0  0  0  0  0  0  0999 V2000
    2.5070    0.3345   -0.7930 O   0  0  0  0  0  0  0  0  0  0  0  0
    1.8202   -0.7029   -0.1458 C   0  0  0  0  0  0  0  0  0  0  0  0
    0.4670   -0.2172    0.3847 C   0  0  0  0  0  0  0  0  0  0  0  0
   -0.4670    0.2172   -0.7543 C   0  0  0  0  0  0  0  0  0  0  0  0
   -1.8202    0.7029   -0.2239 C   0  0  0  0  0  0  0  0  0  0  0  0
   -2.5070   -0.3345    0.4233 O   0  0  0  0  0  0  0  0  0  0  0  0
    2.8530    0.9336   -0.0809 H   0  0  0  0  0  0  0  0  0  0  0  0
    2.4308   -1.0988    0.6973 H   0  0  0  0  0  0  0  0  0  0  0  0
    1.6640   -1.5354   -0.8645 H   0  0  0  0  0  0  0  0  0  0  0  0
    0.6305    0.6321    1.0836 H   0  0  0  0  0  0  0  0  0  0  0  0
   -0.0044   -1.0471    0.9545 H   0  0  0  0  0  0  0  0  0  0  0  0
   -0.6305   -0.6321   -1.4533 H   0  0  0  0  0  0  0  0  0  0  0  0
    0.0044    1.0471   -1.3242 H   0  0  0  0  0  0  0  0  0  0  0  0
   -1.6640    1.5355    0.4948 H   0  0  0  0  0  0  0  0  0  0  0  0
   -2.4308    1.0988   -1.0670 H   0  0  0  0  0  0  0  0  0  0  0  0
   -2.8530   -0.9336   -0.2887 H   0  0  0  0  0  0  0  0  0  0  0  0
  1  2  1  0
  2  3  1  0
  3  4  1  0
  4  5  1  0
  5  6  1  0
  1  7  1  0
  2  8  1  0
  2  9  1  0
  3 10  1  0
  3 11  1  0
  4 12  1  0
  4 13  1  0
  5 14  1  0
  5 15  1  0
  6 16  1  0
M  END
