
     RDKit          3D

  9  8  0  0  0  0  0  0  0  0999 V2000
    1.0971   -0.0430   -0.4685 C   0  0  0  0  0  0  0  0  0  0  0  0
    0.1595    0.7939    0.1697 O   0  0  0  0  0  0  0  0  0  0  0  0
   -1.0802    0.1272    0.2452 C   0  0  0  0  0  0  0  0  0  0  0  0
    2.0681    0.4908   -0.5226 H   0  0  0  0  0  0  0  0  0  0  0  0
    1.2607   -0.9801    0.1093 H   0  0  0  0  0  0  0  0  0  0  0  0
    0.7846   -0.2781   -1.5105 H   0  0  0  0  0  0  0  0  0  0  0  0
   -1.4779   -0.1013   -0.7689 H   0  0  0  0  0  0  0  0  0  0  0  0
   -1.0018   -0.8032    0.8509 H   0  0  0  0  0  0  0  0  0  0  0  0
   -1.8101    0.7939    0.7486 H   0  0  0  0  0  0  0  0  0  0  0  0
  1  2  1  0
  2  3  1  0
  1  4  1  0
  1  5  1  0
  1  6  1  0
  3  7  1  0
  3  8  1  0
  3  9  1  0
M  END
