
     RDKit          3D

 14 13  0  0  0  0  0  0  0  0999 V2000
    2.2683    0.0263    0.5201 O   0  0  0  0  0  0  0  0  0  0  0  0
    1.0063    0.5662    0.2339 C   0  0  0  0  0  0  0  0  0  0  0  0
   -0.0300   -0.5547    0.0456 C   0  0  0  0  0  0  0  0  0  0  0  0
   -0.1922   -1.2704    1.2431 O   0  0  0  0  0  0  0  0  0  0  0  0
   -1.3881    0.0063   -0.3966 C   0  0  0  0  0  0  0  0  0  0  0  0
   -1.9553    0.8047    0.6089 O   0  0  0  0  0  0  0  0  0  0  0  0
    2.6274   -0.3264   -0.3357 H   0  0  0  0  0  0  0  0  0  0  0  0
    1.0625    1.1992   -0.6813 H   0  0  0  0  0  0  0  0  0  0  0  0
    0.7048    1.2187    1.0807 H   0  0  0  0  0  0  0  0  0  0  0  0
    0.3244   -1.2390   -0.7610 H   0  0  0  0  0  0  0  0  0  0  0  0
    0.5740   -1.8983    1.3105 H   0  0  0  0  0  0  0  0  0  0  0  0
   -1.2817    0.5758   -1.3494 H   0  0  0  0  0  0  0  0  0  0  0  0
   -2.0761   -0.8421   -0.5986 H   0  0  0  0  0  0  0  0  0  0  0  0
   -1.6441    1.7337    0.4495 H   0  0  0  0  0  0  0  0  0  0  0  0
  1  2  1  0
  2  3  1  0
  3  4  1  0
  3  5  1  0
  5  6  1  0
  1  7  1  0
  2  8  1  0
  2  9  1  0
  3 10  1  0
  4 11  1  0
  5 12  1  0
  5 13  1  0
  6 14  1  0
M  END
