
     RDKit          3D

 11 10  0  0  0  0  0  0  0  0999 V2000
   -1.5021    0.4920    0.2154 N   0  0  0  0  0  0  0  0  0  0  0  0
   -0.4290   -0.4562    0.5101 C   0  0  0  0  0  0  0  0  0  0  0  0
    0.7326   -0.3313   -0.4849 C   0  0  0  0  0  0  0  0  0  0  0  0
    1.3314    0.9336   -0.3988 O   0  0  0  0  0  0  0  0  0  0  0  0
   -1.1261    1.4653    0.2855 H   0  0  0  0  0  0  0  0  0  0  0  0
   -1.8257    0.3437   -0.7682 H   0  0  0  0  0  0  0  0  0  0  0  0
   -0.8368   -1.4889    0.4635 H   0  0  0  0  0  0  0  0  0  0  0  0
   -0.0583   -0.2847    1.5439 H   0  0  0  0  0  0  0  0  0  0  0  0
    0.3571   -0.4826   -1.5192 H   0  0  0  0  0  0  0  0  0  0  0  0
    1.4850   -1.1266   -0.2815 H   0  0  0  0  0  0  0  0  0  0  0  0
    1.8718    0.9358    0.4341 H   0  0  0  0  0  0  0  0  0  0  0  0
  1  2  1  0
  2  3  1  0
  3  4  1  0
  1  5  1  0
  1  6  1  0
  2  7  1  0
  2  8  1  0
  3  9  1  0
  3 10  1  0
  4 11  1  0
M  END
