
     RDKit          3D

 15 14  0  0  0  0  0  0  0  0999 V2000
    2.4297   -0.2174   -0.4546 C   0  0  0  0  0  0  0  0  0  0  0  0
    1.0702   -0.5353    0.0939 C   0  0  0  0  0  0  0  0  0  0  0  0
    0.8025   -1.6901    0.3896 O   0  0  0  0  0  0  0  0  0  0  0  0
    0.0324    0.5368    0.2861 C   0  0  0  0  0  0  0  0  0  0  0  0
   -1.0802    0.3697   -0.7126 C   0  0  0  0  0  0  0  0  0  0  0  0
   -2.4477   -0.0800   -0.2908 C   0  0  0  0  0  0  0  0  0  0  0  0
   -0.8681    0.6041   -1.8928 O   0  0  0  0  0  0  0  0  0  0  0  0
    2.6016   -0.8039   -1.3814 H   0  0  0  0  0  0  0  0  0  0  0  0
    3.2042   -0.4861    0.2940 H   0  0  0  0  0  0  0  0  0  0  0  0
    2.5268    0.8615   -0.6966 H   0  0  0  0  0  0  0  0  0  0  0  0
    0.4771    1.5473    0.1614 H   0  0  0  0  0  0  0  0  0  0  0  0
   -0.3546    0.4786    1.3259 H   0  0  0  0  0  0  0  0  0  0  0  0
   -3.1909    0.7050   -0.5432 H   0  0  0  0  0  0  0  0  0  0  0  0
   -2.4913   -0.2745    0.8012 H   0  0  0  0  0  0  0  0  0  0  0  0
   -2.7116   -1.0157   -0.8268 H   0  0  0  0  0  0  0  0  0  0  0  0
  1  2  1  0
  2  3  2  0
  2  4  1  0
  4  5  1  0
  5  6  1  0
  5  7  2  0
  1  8  1  0
  1  9  1  0
  1 10  1  0
  4 11  1  0
  4 12  1  0
  6 13  1  0
  6 14  1  0
  6 15  1  0
M  END
