
     RDKit          3D

 17 16  0  0  0  0  0  0  0  0999 V2000
   -2.2224   -1.0256   -0.2355 C   0  0  0  0  0  0  0  0  0  0  0  0
   -1.9823    0.4793   -0.2706 C   0  0  0  0  0  0  0  0  0  0  0  0
   -0.5932    0.7633   -0.4235 O   0  0  0  0  0  0  0  0  0  0  0  0
    0.3360    0.6451    0.6163 C   0  0  0  0  0  0  0  0  0  0  0  0
   -0.0315    0.3156    1.7771 O   0  0  0  0  0  0  0  0  0  0  0  0
    1.7863    0.8732    0.3339 C   0  0  0  0  0  0  0  0  0  0  0  0
    2.4426   -0.4107   -0.1596 C   0  0  0  0  0  0  0  0  0  0  0  0
   -3.3122   -1.2284   -0.1731 H   0  0  0  0  0  0  0  0  0  0  0  0
   -1.7247   -1.4770    0.6480 H   0  0  0  0  0  0  0  0  0  0  0  0
   -1.8209   -1.4946   -1.1586 H   0  0  0  0  0  0  0  0  0  0  0  0
   -2.3763    0.9554    0.6537 H   0  0  0  0  0  0  0  0  0  0  0  0
   -2.5280    0.9071   -1.1379 H   0  0  0  0  0  0  0  0  0  0  0  0
    1.8909    1.6624   -0.4410 H   0  0  0  0  0  0  0  0  0  0  0  0
    2.3006    1.2217    1.2557 H   0  0  0  0  0  0  0  0  0  0  0  0
    3.5168   -0.2224   -0.3685 H   0  0  0  0  0  0  0  0  0  0  0  0
    1.9539   -0.7590   -1.0949 H   0  0  0  0  0  0  0  0  0  0  0  0
    2.3644   -1.2054    0.6130 H   0  0  0  0  0  0  0  0  0  0  0  0
  1  2  1  0
  2  3  1  0
  3  4  1  0
  4  5  2  0
  4  6  1  0
  6  7  1  0
  1  8  1  0
  1  9  1  0
  1 10  1  0
  2 11  1  0
  2 12  1  0
  6 13  1  0
  6 14  1  0
  7 15  1  0
  7 16  1  0
  7 17  1  0
M  END
