
     RDKit          3D

 15 14  0  0  0  0  0  0  0  0999 V2000
    0.9566   -0.9819    0.4611 C   0  0  0  0  0  0  0  0  0  0  0  0
   -0.0261   -0.0499   -0.2720 C   0  0  0  0  0  0  0  0  0  0  0  0
   -1.3577    0.0281    0.4976 C   0  0  0  0  0  0  0  0  0  0  0  0
    0.5851    1.3545   -0.3789 C   0  0  0  0  0  0  0  0  0  0  0  0
   -0.2553   -0.5279   -1.5759 O   0  0  0  0  0  0  0  0  0  0  0  0
    1.9089   -1.0604   -0.1062 H   0  0  0  0  0  0  0  0  0  0  0  0
    0.5264   -2.0017    0.5601 H   0  0  0  0  0  0  0  0  0  0  0  0
    1.1797   -0.5953    1.4790 H   0  0  0  0  0  0  0  0  0  0  0  0
   -1.1989    0.4428    1.5166 H   0  0  0  0  0  0  0  0  0  0  0  0
   -2.0775    0.6794   -0.0432 H   0  0  0  0  0  0  0  0  0  0  0  0
   -1.8102   -0.9819    0.5970 H   0  0  0  0  0  0  0  0  0  0  0  0
    1.5417    1.3171   -0.9435 H   0  0  0  0  0  0  0  0  0  0  0  0
   -0.1074    2.0368   -0.9175 H   0  0  0  0  0  0  0  0  0  0  0  0
    0.7853    1.7767    0.6297 H   0  0  0  0  0  0  0  0  0  0  0  0
   -0.6506   -1.4364   -1.5040 H   0  0  0  0  0  0  0  0  0  0  0  0
  1  2  1  0
  2  3  1  0
  2  4  1  0
  2  5  1  0
  1  6  1  0
  1  7  1  0
  1  8  1  0
  3  9  1  0
  3 10  1  0
  3 11  1  0
  4 12  1  0
  4 13  1  0
  4 14  1  0
  5 15  1  0
M  END
