
     RDKit          3D

 22 21  0  0  0  0  0  0  0  0999 V2000
   -2.0815   -1.1595    0.4468 C   0  0  0  0  0  0  0  0  0  0  0  0
   -0.8418   -0.8653   -0.3878 C   0  0  0  0  0  0  0  0  0  0  0  0
    0.0858   -0.0096    0.3902 N   0  0  0  0  0  0  0  0  0  0  0  0
    1.3655   -0.6841    0.7068 C   0  0  0  0  0  0  0  0  0  0  0  0
    2.2919   -0.8522   -0.5071 C   0  0  0  0  0  0  0  0  0  0  0  0
    0.2791    1.3350   -0.1949 C   0  0  0  0  0  0  0  0  0  0  0  0
   -0.9445    2.2149    0.0480 C   0  0  0  0  0  0  0  0  0  0  0  0
   -2.6013   -0.2157    0.7136 H   0  0  0  0  0  0  0  0  0  0  0  0
   -2.7797   -1.8009   -0.1314 H   0  0  0  0  0  0  0  0  0  0  0  0
   -1.7942   -1.6914    1.3786 H   0  0  0  0  0  0  0  0  0  0  0  0
   -1.1583   -0.3839   -1.3399 H   0  0  0  0  0  0  0  0  0  0  0  0
   -0.3839   -1.8407   -0.6644 H   0  0  0  0  0  0  0  0  0  0  0  0
    1.9019   -0.1042    1.4890 H   0  0  0  0  0  0  0  0  0  0  0  0
    1.1609   -1.6839    1.1496 H   0  0  0  0  0  0  0  0  0  0  0  0
    1.7754   -1.3670   -1.3425 H   0  0  0  0  0  0  0  0  0  0  0  0
    3.1724   -1.4614   -0.2134 H   0  0  0  0  0  0  0  0  0  0  0  0
    2.6611    0.1334   -0.8592 H   0  0  0  0  0  0  0  0  0  0  0  0
    0.4856    1.2714   -1.2867 H   0  0  0  0  0  0  0  0  0  0  0  0
    1.1463    1.8421    0.2843 H   0  0  0  0  0  0  0  0  0  0  0  0
   -1.1871    2.2402    1.1316 H   0  0  0  0  0  0  0  0  0  0  0  0
   -1.8206    1.8332   -0.5160 H   0  0  0  0  0  0  0  0  0  0  0  0
   -0.7328    3.2495   -0.2953 H   0  0  0  0  0  0  0  0  0  0  0  0
  1  2  1  0
  2  3  1  0
  3  4  1  0
  4  5  1  0
  3  6  1  0
  6  7  1  0
  1  8  1  0
  1  9  1  0
  1 10  1  0
  2 11  1  0
  2 12  1  0
  4 13  1  0
  4 14  1  0
  5 15  1  0
  5 16  1  0
  5 17  1  0
  6 18  1  0
  6 19  1  0
  7 20  1  0
  7 21  1  0
  7 22  1  0
M  END
