
     RDKit          3D

 22 21  0  0  0  0  0  0  0  0999 V2000
    2.0845    0.7210    0.4411 C   0  0  0  0  0  0  0  0  0  0  0  0
    1.3540    0.1390   -0.7516 C   0  0  0  0  0  0  0  0  0  0  0  0
    1.4902   -1.3458   -0.7512 C   0  0  0  0  0  0  0  0  0  0  0  0
   -0.0422    0.6287   -0.8437 C   0  0  0  0  0  0  0  0  0  0  0  0
   -0.3843    1.2358   -1.8660 O   0  0  0  0  0  0  0  0  0  0  0  0
   -1.0575    0.4412    0.2048 C   0  0  0  0  0  0  0  0  0  0  0  0
   -2.3525    1.0848   -0.2389 C   0  0  0  0  0  0  0  0  0  0  0  0
   -1.3729   -1.0474    0.3789 C   0  0  0  0  0  0  0  0  0  0  0  0
    1.8220    1.7751    0.6333 H   0  0  0  0  0  0  0  0  0  0  0  0
    3.1724    0.6898    0.2250 H   0  0  0  0  0  0  0  0  0  0  0  0
    1.9405    0.0950    1.3542 H   0  0  0  0  0  0  0  0  0  0  0  0
    1.9181    0.5105   -1.6398 H   0  0  0  0  0  0  0  0  0  0  0  0
    0.9799   -1.7814   -1.6466 H   0  0  0  0  0  0  0  0  0  0  0  0
    2.5956   -1.5719   -0.8292 H   0  0  0  0  0  0  0  0  0  0  0  0
    1.1545   -1.8566    0.1528 H   0  0  0  0  0  0  0  0  0  0  0  0
   -0.7181    0.8278    1.1883 H   0  0  0  0  0  0  0  0  0  0  0  0
   -2.1451    1.9865   -0.8755 H   0  0  0  0  0  0  0  0  0  0  0  0
   -2.9310    0.3962   -0.9008 H   0  0  0  0  0  0  0  0  0  0  0  0
   -3.0038    1.3510    0.6177 H   0  0  0  0  0  0  0  0  0  0  0  0
   -0.9027   -1.4519    1.3040 H   0  0  0  0  0  0  0  0  0  0  0  0
   -1.1320   -1.6282   -0.5327 H   0  0  0  0  0  0  0  0  0  0  0  0
   -2.4696   -1.1993    0.5362 H   0  0  0  0  0  0  0  0  0  0  0  0
  1  2  1  0
  2  3  1  0
  2  4  1  0
  4  5  2  0
  4  6  1  0
  6  7  1  0
  6  8  1  0
  1  9  1  0
  1 10  1  0
  1 11  1  0
  2 12  1  0
  3 13  1  0
  3 14  1  0
  3 15  1  0
  6 16  1  0
  7 17  1  0
  7 18  1  0
  7 19  1  0
  8 20  1  0
  8 21  1  0
  8 22  1  0
M  END
