
     RDKit          3D

 19 18  0  0  0  0  0  0  0  0999 V2000
   -2.4501    0.5988    0.3757 C   0  0  0  0  0  0  0  0  0  0  0  0
   -1.8769   -0.2338   -0.7709 C   0  0  0  0  0  0  0  0  0  0  0  0
   -0.3668   -0.0236   -0.9618 C   0  0  0  0  0  0  0  0  0  0  0  0
    0.4640   -0.6573    0.1628 C   0  0  0  0  0  0  0  0  0  0  0  0
    1.9368   -0.5183   -0.1214 C   0  0  0  0  0  0  0  0  0  0  0  0
    2.8146    0.3675    0.7128 C   0  0  0  0  0  0  0  0  0  0  0  0
    2.4329   -1.1465   -1.0445 O   0  0  0  0  0  0  0  0  0  0  0  0
   -2.1952    1.6717    0.2428 H   0  0  0  0  0  0  0  0  0  0  0  0
   -2.0620    0.2442    1.3527 H   0  0  0  0  0  0  0  0  0  0  0  0
   -3.5558    0.4979    0.3871 H   0  0  0  0  0  0  0  0  0  0  0  0
   -2.0949   -1.3098   -0.5959 H   0  0  0  0  0  0  0  0  0  0  0  0
   -2.3936    0.0649   -1.7086 H   0  0  0  0  0  0  0  0  0  0  0  0
   -0.0773   -0.4884   -1.9300 H   0  0  0  0  0  0  0  0  0  0  0  0
   -0.1426    1.0639   -1.0302 H   0  0  0  0  0  0  0  0  0  0  0  0
    0.2181   -0.1708    1.1296 H   0  0  0  0  0  0  0  0  0  0  0  0
    0.2179   -1.7375    0.2541 H   0  0  0  0  0  0  0  0  0  0  0  0
    3.2921    1.1317    0.0644 H   0  0  0  0  0  0  0  0  0  0  0  0
    2.2336    0.8884    1.5022 H   0  0  0  0  0  0  0  0  0  0  0  0
    3.6053   -0.2431    1.1967 H   0  0  0  0  0  0  0  0  0  0  0  0
  1  2  1  0
  2  3  1  0
  3  4  1  0
  4  5  1  0
  5  6  1  0
  5  7  2  0
  1  8  1  0
  1  9  1  0
  1 10  1  0
  2 11  1  0
  2 12  1  0
  3 13  1  0
  3 14  1  0
  4 15  1  0
  4 16  1  0
  6 17  1  0
  6 18  1  0
  6 19  1  0
M  END
