
     RDKit          3D

 19 18  0  0  0  0  0  0  0  0999 V2000
   -3.2095    0.8176   -0.9562 O   0  0  0  0  0  0  0  0  0  0  0  0
   -2.4395   -0.0878   -0.2132 C   0  0  0  0  0  0  0  0  0  0  0  0
   -0.9936    0.4053   -0.1117 C   0  0  0  0  0  0  0  0  0  0  0  0
   -0.1221   -0.5962    0.6603 C   0  0  0  0  0  0  0  0  0  0  0  0
    1.3054   -0.0787    0.8973 C   0  0  0  0  0  0  0  0  0  0  0  0
    2.1438   -0.0427   -0.3863 C   0  0  0  0  0  0  0  0  0  0  0  0
    3.4621    0.3308   -0.0908 O   0  0  0  0  0  0  0  0  0  0  0  0
   -3.3957    1.5889   -0.3593 H   0  0  0  0  0  0  0  0  0  0  0  0
   -2.4600   -1.0719   -0.7284 H   0  0  0  0  0  0  0  0  0  0  0  0
   -2.8764   -0.2216    0.8030 H   0  0  0  0  0  0  0  0  0  0  0  0
   -0.5942    0.5417   -1.1391 H   0  0  0  0  0  0  0  0  0  0  0  0
   -0.9812    1.3886    0.4074 H   0  0  0  0  0  0  0  0  0  0  0  0
   -0.0857   -1.5656    0.1162 H   0  0  0  0  0  0  0  0  0  0  0  0
   -0.5867   -0.7848    1.6531 H   0  0  0  0  0  0  0  0  0  0  0  0
    1.8021   -0.7566    1.6254 H   0  0  0  0  0  0  0  0  0  0  0  0
    1.2723    0.9355    1.3520 H   0  0  0  0  0  0  0  0  0  0  0  0
    1.7239    0.7050   -1.0901 H   0  0  0  0  0  0  0  0  0  0  0  0
    2.1292   -1.0370   -0.8889 H   0  0  0  0  0  0  0  0  0  0  0  0
    3.9061   -0.4704    0.2922 H   0  0  0  0  0  0  0  0  0  0  0  0
  1  2  1  0
  2  3  1  0
  3  4  1  0
  4  5  1  0
  5  6  1  0
  6  7  1  0
  1  8  1  0
  2  9  1  0
  2 10  1  0
  3 11  1  0
  3 12  1  0
  4 13  1  0
  4 14  1  0
  5 15  1  0
  5 16  1  0
  6 17  1  0
  6 18  1  0
  7 19  1  0
M  END
