
     RDKit          3D

 15 14  0  0  0  0  0  0  0  0999 V2000
    2.7146    0.3823   -0.3829 C   0  0  0  0  0  0  0  0  0  0  0  0
    1.4423   -0.2454   -0.2782 O   0  0  0  0  0  0  0  0  0  0  0  0
    0.3206    0.4041    0.2502 C   0  0  0  0  0  0  0  0  0  0  0  0
    0.4140    1.5950    0.6571 O   0  0  0  0  0  0  0  0  0  0  0  0
   -0.9779   -0.3011    0.3324 C   0  0  0  0  0  0  0  0  0  0  0  0
   -2.1736    0.4056    0.9116 C   0  0  0  0  0  0  0  0  0  0  0  0
   -1.1137   -1.5350   -0.1657 C   0  0  0  0  0  0  0  0  0  0  0  0
    3.4371   -0.3307   -0.8300 H   0  0  0  0  0  0  0  0  0  0  0  0
    2.6437    1.2790   -1.0344 H   0  0  0  0  0  0  0  0  0  0  0  0
    3.0769    0.6777    0.6246 H   0  0  0  0  0  0  0  0  0  0  0  0
   -2.9637   -0.3126    1.2202 H   0  0  0  0  0  0  0  0  0  0  0  0
   -1.8779    0.9867    1.8104 H   0  0  0  0  0  0  0  0  0  0  0  0
   -2.5948    1.0994    0.1542 H   0  0  0  0  0  0  0  0  0  0  0  0
   -0.2791   -2.0597   -0.6129 H   0  0  0  0  0  0  0  0  0  0  0  0
   -2.0685   -2.0454   -0.1376 H   0  0  0  0  0  0  0  0  0  0  0  0
  1  2  1  0
  2  3  1  0
  3  4  2  0
  3  5  1  0
  5  6  1  0
  5  7  2  3
  1  8  1  0
  1  9  1  0
  1 10  1  0
  6 11  1  0
  6 12  1  0
  6 13  1  0
  7 14  1  0
  7 15  1  0
M  END
