
     RDKit          3D

 27 26  0  0  0  0  0  0  0  0999 V2000
   -3.7112    0.0258    0.1175 C   0  0  0  0  0  0  0  0  0  0  0  0
   -2.5813   -0.4799    0.9972 C   0  0  0  0  0  0  0  0  0  0  0  0
   -1.4921    0.5978    0.9318 C   0  0  0  0  0  0  0  0  0  0  0  0
   -1.0892    0.7161   -0.5191 C   0  0  0  0  0  0  0  0  0  0  0  0
   -0.6215   -0.4857   -0.9571 O   0  0  0  0  0  0  0  0  0  0  0  0
    0.4701   -1.0110   -0.3204 C   0  0  0  0  0  0  0  0  0  0  0  0
    1.6309   -0.0494   -0.4420 C   0  0  0  0  0  0  0  0  0  0  0  0
    2.8750   -0.5704    0.2402 C   0  0  0  0  0  0  0  0  0  0  0  0
    3.9573    0.4729    0.0501 C   0  0  0  0  0  0  0  0  0  0  0  0
   -3.7151    1.1365    0.1367 H   0  0  0  0  0  0  0  0  0  0  0  0
   -3.5893   -0.3523   -0.8976 H   0  0  0  0  0  0  0  0  0  0  0  0
   -4.6943   -0.3000    0.5157 H   0  0  0  0  0  0  0  0  0  0  0  0
   -2.2207   -1.4250    0.5420 H   0  0  0  0  0  0  0  0  0  0  0  0
   -2.8893   -0.6776    2.0275 H   0  0  0  0  0  0  0  0  0  0  0  0
   -0.6273    0.3693    1.5593 H   0  0  0  0  0  0  0  0  0  0  0  0
   -1.9296    1.5886    1.2130 H   0  0  0  0  0  0  0  0  0  0  0  0
   -0.3996    1.5734   -0.6545 H   0  0  0  0  0  0  0  0  0  0  0  0
   -2.0093    1.0126   -1.1045 H   0  0  0  0  0  0  0  0  0  0  0  0
    0.2237   -1.2510    0.7254 H   0  0  0  0  0  0  0  0  0  0  0  0
    0.6919   -1.9822   -0.8269 H   0  0  0  0  0  0  0  0  0  0  0  0
    1.3406    0.8705    0.1283 H   0  0  0  0  0  0  0  0  0  0  0  0
    1.8214    0.1411   -1.4979 H   0  0  0  0  0  0  0  0  0  0  0  0
    2.6822   -0.7004    1.3145 H   0  0  0  0  0  0  0  0  0  0  0  0
    3.1842   -1.5318   -0.2546 H   0  0  0  0  0  0  0  0  0  0  0  0
    4.7307    0.1215   -0.6683 H   0  0  0  0  0  0  0  0  0  0  0  0
    3.5503    1.4225   -0.3719 H   0  0  0  0  0  0  0  0  0  0  0  0
    4.4117    0.7681    1.0358 H   0  0  0  0  0  0  0  0  0  0  0  0
  1  2  1  0
  2  3  1  0
  3  4  1  0
  4  5  1  0
  5  6  1  0
  6  7  1  0
  7  8  1  0
  8  9  1  0
  1 10  1  0
  1 11  1  0
  1 12  1  0
  2 13  1  0
  2 14  1  0
  3 15  1  0
  3 16  1  0
  4 17  1  0
  4 18  1  0
  6 19  1  0
  6 20  1  0
  7 21  1  0
  7 22  1  0
  8 23  1  0
  8 24  1  0
  9 25  1  0
  9 26  1  0
  9 27  1  0
M  END
