
     RDKit          3D

 21 20  0  0  0  0  0  0  0  0999 V2000
   -1.8853   -0.8693   -0.7922 C   0  0  0  0  0  0  0  0  0  0  0  0
   -1.1680    0.0405    0.2101 C   0  0  0  0  0  0  0  0  0  0  0  0
   -2.0443    1.2463    0.5461 C   0  0  0  0  0  0  0  0  0  0  0  0
    0.0452    0.5108   -0.3538 O   0  0  0  0  0  0  0  0  0  0  0  0
    1.1432   -0.3208   -0.0160 C   0  0  0  0  0  0  0  0  0  0  0  0
    2.1261   -0.3226   -1.1858 C   0  0  0  0  0  0  0  0  0  0  0  0
    1.8272    0.2138    1.2462 C   0  0  0  0  0  0  0  0  0  0  0  0
   -2.8522   -1.2195   -0.3718 H   0  0  0  0  0  0  0  0  0  0  0  0
   -1.2610   -1.7596   -1.0154 H   0  0  0  0  0  0  0  0  0  0  0  0
   -2.0777   -0.3251   -1.7416 H   0  0  0  0  0  0  0  0  0  0  0  0
   -1.0149   -0.5206    1.1629 H   0  0  0  0  0  0  0  0  0  0  0  0
   -1.5206    1.8958    1.2794 H   0  0  0  0  0  0  0  0  0  0  0  0
   -2.2562    1.8415   -0.3681 H   0  0  0  0  0  0  0  0  0  0  0  0
   -3.0050    0.9141    0.9948 H   0  0  0  0  0  0  0  0  0  0  0  0
    0.8463   -1.3831    0.1557 H   0  0  0  0  0  0  0  0  0  0  0  0
    1.6248   -0.7194   -2.0942 H   0  0  0  0  0  0  0  0  0  0  0  0
    3.0001   -0.9693   -0.9566 H   0  0  0  0  0  0  0  0  0  0  0  0
    2.4821    0.7085   -1.3980 H   0  0  0  0  0  0  0  0  0  0  0  0
    1.1219    0.1892    2.1031 H   0  0  0  0  0  0  0  0  0  0  0  0
    2.1607    1.2624    1.0924 H   0  0  0  0  0  0  0  0  0  0  0  0
    2.7075   -0.4135    1.5029 H   0  0  0  0  0  0  0  0  0  0  0  0
  1  2  1  0
  2  3  1  0
  2  4  1  0
  4  5  1  0
  5  6  1  0
  5  7  1  0
  1  8  1  0
  1  9  1  0
  1 10  1  0
  2 11  1  0
  3 12  1  0
  3 13  1  0
  3 14  1  0
  5 15  1  0
  6 16  1  0
  6 17  1  0
  6 18  1  0
  7 19  1  0
  7 20  1  0
  7 21  1  0
M  END
