
     RDKit          3D

 18 17  0  0  0  0  0  0  0  0999 V2000
    2.7054    0.2210   -0.5934 C   0  0  0  0  0  0  0  0  0  0  0  0
    1.5224    0.2706    0.3692 C   0  0  0  0  0  0  0  0  0  0  0  0
    0.1936    0.1067   -0.3773 C   0  0  0  0  0  0  0  0  0  0  0  0
   -0.9920    0.1570    0.5934 C   0  0  0  0  0  0  0  0  0  0  0  0
   -2.3209   -0.0057   -0.1492 C   0  0  0  0  0  0  0  0  0  0  0  0
   -3.3886    0.0123    0.7586 O   0  0  0  0  0  0  0  0  0  0  0  0
    3.6519    0.3422   -0.0257 H   0  0  0  0  0  0  0  0  0  0  0  0
    2.6309    1.0413   -1.3389 H   0  0  0  0  0  0  0  0  0  0  0  0
    2.7313   -0.7552   -1.1230 H   0  0  0  0  0  0  0  0  0  0  0  0
    1.6345   -0.5431    1.1186 H   0  0  0  0  0  0  0  0  0  0  0  0
    1.5346    1.2456    0.9036 H   0  0  0  0  0  0  0  0  0  0  0  0
    0.0899    0.9219   -1.1272 H   0  0  0  0  0  0  0  0  0  0  0  0
    0.1902   -0.8687   -0.9123 H   0  0  0  0  0  0  0  0  0  0  0  0
   -0.9914    1.1315    1.1294 H   0  0  0  0  0  0  0  0  0  0  0  0
   -0.8939   -0.6583    1.3435 H   0  0  0  0  0  0  0  0  0  0  0  0
   -2.3304   -0.9798   -0.6833 H   0  0  0  0  0  0  0  0  0  0  0  0
   -2.4440    0.8033   -0.9054 H   0  0  0  0  0  0  0  0  0  0  0  0
   -3.5235    0.9607    1.0198 H   0  0  0  0  0  0  0  0  0  0  0  0
  1  2  1  0
  2  3  1  0
  3  4  1  0
  4  5  1  0
  5  6  1  0
  1  7  1  0
  1  8  1  0
  1  9  1  0
  2 10  1  0
  2 11  1  0
  3 12  1  0
  3 13  1  0
  4 14  1  0
  4 15  1  0
  5 16  1  0
  5 17  1  0
  6 18  1  0
M  END
