
     RDKit          3D

  8  7  0  0  0  0  0  0  0  0999 V2000
   -1.1320    1.1170    1.3844 Cl  0  0  0  0  0  0  0  0  0  0  0  0
   -0.7985    0.0997   -0.0465 C   0  0  0  0  0  0  0  0  0  0  0  0
    0.6876   -0.2362   -0.1834 C   0  0  0  0  0  0  0  0  0  0  0  0
    1.2735   -1.1551    1.2291 Cl  0  0  0  0  0  0  0  0  0  0  0  0
    1.6666    1.2418   -0.3834 Cl  0  0  0  0  0  0  0  0  0  0  0  0
   -1.1423    0.6391   -0.9543 H   0  0  0  0  0  0  0  0  0  0  0  0
   -1.3848   -0.8395    0.0404 H   0  0  0  0  0  0  0  0  0  0  0  0
    0.8299   -0.8669   -1.0862 H   0  0  0  0  0  0  0  0  0  0  0  0
  1  2  1  0
  2  3  1  0
  3  4  1  0
  3  5  1  0
  2  6  1  0
  2  7  1  0
  3  8  1  0
M  END
