
     RDKit          3D

 17 16  0  0  0  0  0  0  0  0999 V2000
    2.9089    0.4420   -0.3102 O   0  0  0  0  0  0  0  0  0  0  0  0
    2.1066   -0.7045   -0.2504 C   0  0  0  0  0  0  0  0  0  0  0  0
    0.9274   -0.4622    0.6831 C   0  0  0  0  0  0  0  0  0  0  0  0
    0.1390    0.5961    0.1781 O   0  0  0  0  0  0  0  0  0  0  0  0
   -1.0345    0.7562    0.9540 C   0  0  0  0  0  0  0  0  0  0  0  0
   -2.2127    0.0310    0.3003 C   0  0  0  0  0  0  0  0  0  0  0  0
   -2.4010    0.4803   -1.0144 O   0  0  0  0  0  0  0  0  0  0  0  0
    3.6521    0.2248   -0.9310 H   0  0  0  0  0  0  0  0  0  0  0  0
    2.7042   -1.5614    0.1333 H   0  0  0  0  0  0  0  0  0  0  0  0
    1.7274   -0.9563   -1.2662 H   0  0  0  0  0  0  0  0  0  0  0  0
    1.3212   -0.2054    1.6928 H   0  0  0  0  0  0  0  0  0  0  0  0
    0.3382   -1.4052    0.7477 H   0  0  0  0  0  0  0  0  0  0  0  0
   -1.2711    1.8404    0.9997 H   0  0  0  0  0  0  0  0  0  0  0  0
   -0.9228    0.4183    2.0119 H   0  0  0  0  0  0  0  0  0  0  0  0
   -3.1357    0.1945    0.9016 H   0  0  0  0  0  0  0  0  0  0  0  0
   -2.0144   -1.0609    0.2800 H   0  0  0  0  0  0  0  0  0  0  0  0
   -2.8328    1.3721   -0.9506 H   0  0  0  0  0  0  0  0  0  0  0  0
  1  2  1  0
  2  3  1  0
  3  4  1  0
  4  5  1  0
  5  6  1  0
  6  7  1  0
  1  8  1  0
  2  9  1  0
  2 10  1  0
  3 11  1  0
  3 12  1  0
  5 13  1  0
  5 14  1  0
  6 15  1  0
  6 16  1  0
  7 17  1  0
M  END
