
     RDKit          3D

 10  9  0  0  0  0  0  0  0  0999 V2000
   -1.2965    0.0016   -0.2047 C   0  0  0  0  0  0  0  0  0  0  0  0
    0.0208    0.4912    0.3159 C   0  0  0  0  0  0  0  0  0  0  0  0
    1.2816   -0.2668    0.0336 C   0  0  0  0  0  0  0  0  0  0  0  0
    0.0705    1.5173    0.9766 O   0  0  0  0  0  0  0  0  0  0  0  0
   -2.1177    0.6852    0.0999 H   0  0  0  0  0  0  0  0  0  0  0  0
   -1.5043   -1.0107    0.2005 H   0  0  0  0  0  0  0  0  0  0  0  0
   -1.2642   -0.0476   -1.3132 H   0  0  0  0  0  0  0  0  0  0  0  0
    1.7494   -0.5809    0.9901 H   0  0  0  0  0  0  0  0  0  0  0  0
    1.0708   -1.1714   -0.5754 H   0  0  0  0  0  0  0  0  0  0  0  0
    1.9896    0.3821   -0.5233 H   0  0  0  0  0  0  0  0  0  0  0  0
  1  2  1  0
  2  3  1  0
  2  4  2  0
  1  5  1  0
  1  6  1  0
  1  7  1  0
  3  8  1  0
  3  9  1  0
  3 10  1  0
M  END
