
     RDKit          3D

 15 14  0  0  0  0  0  0  0  0999 V2000
   -2.6825    0.2568   -0.3384 C   0  0  0  0  0  0  0  0  0  0  0  0
   -1.3473   -0.0890    0.3030 C   0  0  0  0  0  0  0  0  0  0  0  0
    0.0178    0.3641   -0.8190 S   0  0  0  0  0  0  0  0  0  0  0  0
    1.3331   -0.2026    0.3110 C   0  0  0  0  0  0  0  0  0  0  0  0
    2.6965    0.0288   -0.3224 C   0  0  0  0  0  0  0  0  0  0  0  0
   -2.7378    1.3472   -0.5425 H   0  0  0  0  0  0  0  0  0  0  0  0
   -3.5095   -0.0210    0.3486 H   0  0  0  0  0  0  0  0  0  0  0  0
   -2.8054   -0.3017   -1.2906 H   0  0  0  0  0  0  0  0  0  0  0  0
   -1.2461    0.4678    1.2590 H   0  0  0  0  0  0  0  0  0  0  0  0
   -1.3137   -1.1797    0.5115 H   0  0  0  0  0  0  0  0  0  0  0  0
    1.2060   -1.2864    0.5190 H   0  0  0  0  0  0  0  0  0  0  0  0
    1.2736    0.3610    1.2665 H   0  0  0  0  0  0  0  0  0  0  0  0
    2.8450    1.1106   -0.5258 H   0  0  0  0  0  0  0  0  0  0  0  0
    2.7774   -0.5383   -1.2739 H   0  0  0  0  0  0  0  0  0  0  0  0
    3.4929   -0.3177    0.3695 H   0  0  0  0  0  0  0  0  0  0  0  0
  1  2  1  0
  2  3  1  0
  3  4  1  0
  4  5  1  0
  1  6  1  0
  1  7  1  0
  1  8  1  0
  2  9  1  0
  2 10  1  0
  4 11  1  0
  4 12  1  0
  5 13  1  0
  5 14  1  0
  5 15  1  0
M  END
