
     RDKit          3D

  8  7  0  0  0  0  0  0  0  0999 V2000
   -1.8008   -1.2413    0.0134 Cl  0  0  0  0  0  0  0  0  0  0  0  0
   -0.7621    0.2078   -0.1154 C   0  0  0  0  0  0  0  0  0  0  0  0
   -1.2605    1.3700    1.1481 Cl  0  0  0  0  0  0  0  0  0  0  0  0
    0.7328   -0.1482   -0.0079 C   0  0  0  0  0  0  0  0  0  0  0  0
    1.1968   -1.2747   -1.3121 Cl  0  0  0  0  0  0  0  0  0  0  0  0
    1.7335    1.3190   -0.1850 Cl  0  0  0  0  0  0  0  0  0  0  0  0
    1.1149   -0.9097    1.5626 Cl  0  0  0  0  0  0  0  0  0  0  0  0
   -0.9546    0.6771   -1.1036 H   0  0  0  0  0  0  0  0  0  0  0  0
  1  2  1  0
  2  3  1  0
  2  4  1  0
  4  5  1  0
  4  6  1  0
  4  7  1  0
  2  8  1  0
M  END
