
     RDKit          3D

 16 15  0  0  0  0  0  0  0  0999 V2000
   -0.9993   -1.1232    0.2755 C   0  0  0  0  0  0  0  0  0  0  0  0
    0.0845   -0.0426    0.1150 C   0  0  0  0  0  0  0  0  0  0  0  0
    1.0618   -0.4666   -0.9955 C   0  0  0  0  0  0  0  0  0  0  0  0
   -0.5741    1.3005   -0.2591 C   0  0  0  0  0  0  0  0  0  0  0  0
    0.8217    0.0885    1.3783 N   0  0  0  0  0  0  0  0  0  0  0  0
   -1.7233   -0.8348    1.0677 H   0  0  0  0  0  0  0  0  0  0  0  0
   -0.5389   -2.0932    0.5626 H   0  0  0  0  0  0  0  0  0  0  0  0
   -1.5582   -1.2647   -0.6748 H   0  0  0  0  0  0  0  0  0  0  0  0
    0.5272   -0.6003   -1.9608 H   0  0  0  0  0  0  0  0  0  0  0  0
    1.5568   -1.4255   -0.7298 H   0  0  0  0  0  0  0  0  0  0  0  0
    1.8504    0.3037   -1.1360 H   0  0  0  0  0  0  0  0  0  0  0  0
   -1.1343    1.2093   -1.2147 H   0  0  0  0  0  0  0  0  0  0  0  0
    0.1961    2.0925   -0.3784 H   0  0  0  0  0  0  0  0  0  0  0  0
   -1.2834    1.6212    0.5339 H   0  0  0  0  0  0  0  0  0  0  0  0
    1.5465    0.8375    1.2825 H   0  0  0  0  0  0  0  0  0  0  0  0
    0.1664    0.3978    2.1335 H   0  0  0  0  0  0  0  0  0  0  0  0
  1  2  1  0
  2  3  1  0
  2  4  1  0
  2  5  1  0
  1  6  1  0
  1  7  1  0
  1  8  1  0
  3  9  1  0
  3 10  1  0
  3 11  1  0
  4 12  1  0
  4 13  1  0
  4 14  1  0
  5 15  1  0
  5 16  1  0
M  END
