
     RDKit          3D

 22 21  0  0  0  0  0  0  0  0999 V2000
   -2.3040   -1.0464   -0.0047 C   0  0  0  0  0  0  0  0  0  0  0  0
   -1.2067   -0.0187    0.3081 C   0  0  0  0  0  0  0  0  0  0  0  0
   -1.7673    1.3982    0.1386 C   0  0  0  0  0  0  0  0  0  0  0  0
   -0.0483   -0.2046   -0.5905 N   0  0  0  0  0  0  0  0  0  0  0  0
    1.2260    0.2269    0.0182 C   0  0  0  0  0  0  0  0  0  0  0  0
    2.1876    0.6522   -1.0919 C   0  0  0  0  0  0  0  0  0  0  0  0
    1.8549   -0.8909    0.8674 C   0  0  0  0  0  0  0  0  0  0  0  0
   -1.9245   -2.0747    0.1755 H   0  0  0  0  0  0  0  0  0  0  0  0
   -2.6255   -0.9628   -1.0652 H   0  0  0  0  0  0  0  0  0  0  0  0
   -3.1841   -0.8856    0.6542 H   0  0  0  0  0  0  0  0  0  0  0  0
   -0.9154   -0.1588    1.3733 H   0  0  0  0  0  0  0  0  0  0  0  0
   -2.0770    1.5689   -0.9149 H   0  0  0  0  0  0  0  0  0  0  0  0
   -1.0036    2.1562    0.4096 H   0  0  0  0  0  0  0  0  0  0  0  0
   -2.6462    1.5471    0.8017 H   0  0  0  0  0  0  0  0  0  0  0  0
    0.0364   -1.2045   -0.8930 H   0  0  0  0  0  0  0  0  0  0  0  0
    1.0701    1.1137    0.6723 H   0  0  0  0  0  0  0  0  0  0  0  0
    3.1438    1.0144   -0.6571 H   0  0  0  0  0  0  0  0  0  0  0  0
    1.7375    1.4779   -1.6833 H   0  0  0  0  0  0  0  0  0  0  0  0
    2.3991   -0.2001   -1.7729 H   0  0  0  0  0  0  0  0  0  0  0  0
    2.7953   -0.5299    1.3359 H   0  0  0  0  0  0  0  0  0  0  0  0
    1.1641   -1.2004    1.6785 H   0  0  0  0  0  0  0  0  0  0  0  0
    2.0877   -1.7783    0.2404 H   0  0  0  0  0  0  0  0  0  0  0  0
  1  2  1  0
  2  3  1  0
  2  4  1  0
  4  5  1  0
  5  6  1  0
  5  7  1  0
  1  8  1  0
  1  9  1  0
  1 10  1  0
  2 11  1  0
  3 12  1  0
  3 13  1  0
  3 14  1  0
  4 15  1  0
  5 16  1  0
  6 17  1  0
  6 18  1  0
  6 19  1  0
  7 20  1  0
  7 21  1  0
  7 22  1  0
M  END
