
     RDKit          3D

  8  7  0  0  0  0  0  0  0  0999 V2000
   -0.7846   -0.1084   -0.0320 C   0  0  0  0  0  0  0  0  0  0  0  0
    0.7236   -0.0037    0.1333 C   0  0  0  0  0  0  0  0  0  0  0  0
    1.3810    1.2237   -0.9778 Cl  0  0  0  0  0  0  0  0  0  0  0  0
   -1.1841   -0.8755    0.6644 H   0  0  0  0  0  0  0  0  0  0  0  0
   -1.2620    0.8678    0.1971 H   0  0  0  0  0  0  0  0  0  0  0  0
   -1.0346   -0.4037   -1.0730 H   0  0  0  0  0  0  0  0  0  0  0  0
    1.1938   -0.9846   -0.0898 H   0  0  0  0  0  0  0  0  0  0  0  0
    0.9669    0.2843    1.1777 H   0  0  0  0  0  0  0  0  0  0  0  0
  1  2  1  0
  2  3  1  0
  1  4  1  0
  1  5  1  0
  1  6  1  0
  2  7  1  0
  2  8  1  0
M  END
