
     RDKit          3D

  9  8  0  0  0  0  0  0  0  0999 V2000
   -0.9246   -0.3712    0.1604 C   0  0  0  0  0  0  0  0  0  0  0  0
    0.2274    0.5871   -0.1145 C   0  0  0  0  0  0  0  0  0  0  0  0
    1.5026   -0.1373   -0.1485 C   0  0  0  0  0  0  0  0  0  0  0  0
    2.5087   -0.7085   -0.1753 N   0  0  0  0  0  0  0  0  0  0  0  0
   -1.8799    0.1944    0.1823 H   0  0  0  0  0  0  0  0  0  0  0  0
   -0.9865   -1.1412   -0.6386 H   0  0  0  0  0  0  0  0  0  0  0  0
   -0.7858   -0.8714    1.1430 H   0  0  0  0  0  0  0  0  0  0  0  0
    0.0691    1.0897   -1.0919 H   0  0  0  0  0  0  0  0  0  0  0  0
    0.2691    1.3584    0.6831 H   0  0  0  0  0  0  0  0  0  0  0  0
  1  2  1  0
  2  3  1  0
  3  4  3  0
  1  5  1  0
  1  6  1  0
  1  7  1  0
  2  8  1  0
  2  9  1  0
M  END
