
     RDKit          3D

 18 17  0  0  0  0  0  0  0  0999 V2000
   -3.6245   -0.3143    0.1861 C   0  0  0  0  0  0  0  0  0  0  0  0
   -2.4148    0.4934   -0.1949 C   0  0  0  0  0  0  0  0  0  0  0  0
   -1.2520   -0.3079    0.0677 O   0  0  0  0  0  0  0  0  0  0  0  0
    0.0091    0.2307   -0.2085 C   0  0  0  0  0  0  0  0  0  0  0  0
    0.0529    1.3969   -0.6755 O   0  0  0  0  0  0  0  0  0  0  0  0
    1.1820   -0.4761    0.0160 O   0  0  0  0  0  0  0  0  0  0  0  0
    2.4067    0.1848   -0.3073 C   0  0  0  0  0  0  0  0  0  0  0  0
    3.6006   -0.6799   -0.0209 C   0  0  0  0  0  0  0  0  0  0  0  0
   -4.0817   -0.6952   -0.7668 H   0  0  0  0  0  0  0  0  0  0  0  0
   -4.3690    0.2918    0.7600 H   0  0  0  0  0  0  0  0  0  0  0  0
   -3.3766   -1.1831    0.8297 H   0  0  0  0  0  0  0  0  0  0  0  0
   -2.3211    1.3641    0.5080 H   0  0  0  0  0  0  0  0  0  0  0  0
   -2.4112    0.7988   -1.2526 H   0  0  0  0  0  0  0  0  0  0  0  0
    2.4220    1.1206    0.2826 H   0  0  0  0  0  0  0  0  0  0  0  0
    2.3929    0.4252   -1.3963 H   0  0  0  0  0  0  0  0  0  0  0  0
    3.7422   -1.4044   -0.8534 H   0  0  0  0  0  0  0  0  0  0  0  0
    4.5027   -0.0342   -0.0155 H   0  0  0  0  0  0  0  0  0  0  0  0
    3.5397   -1.2115    0.9363 H   0  0  0  0  0  0  0  0  0  0  0  0
  1  2  1  0
  2  3  1  0
  3  4  1  0
  4  5  2  0
  4  6  1  0
  6  7  1  0
  7  8  1  0
  1  9  1  0
  1 10  1  0
  1 11  1  0
  2 12  1  0
  2 13  1  0
  7 14  1  0
  7 15  1  0
  8 16  1  0
  8 17  1  0
  8 18  1  0
M  END
