
     RDKit          3D

 16 15  0  0  0  0  0  0  0  0999 V2000
   -2.3823    0.2288    0.0063 C   0  0  0  0  0  0  0  0  0  0  0  0
   -0.9192    0.4552    0.3653 C   0  0  0  0  0  0  0  0  0  0  0  0
   -0.1645   -0.7923    0.1898 N   0  0  0  0  0  0  0  0  0  0  0  0
    1.1771   -0.7200    0.7898 C   0  0  0  0  0  0  0  0  0  0  0  0
    2.1315    0.1746   -0.0067 C   0  0  0  0  0  0  0  0  0  0  0  0
   -2.9538    1.1694    0.1539 H   0  0  0  0  0  0  0  0  0  0  0  0
   -2.8165   -0.5608    0.6558 H   0  0  0  0  0  0  0  0  0  0  0  0
   -2.4727   -0.0815   -1.0565 H   0  0  0  0  0  0  0  0  0  0  0  0
   -0.8705    0.7964    1.4232 H   0  0  0  0  0  0  0  0  0  0  0  0
   -0.5104    1.2541   -0.2913 H   0  0  0  0  0  0  0  0  0  0  0  0
   -0.0758   -0.9980   -0.8335 H   0  0  0  0  0  0  0  0  0  0  0  0
    1.1183   -0.3671    1.8429 H   0  0  0  0  0  0  0  0  0  0  0  0
    1.6024   -1.7461    0.8166 H   0  0  0  0  0  0  0  0  0  0  0  0
    1.8142    1.2363    0.0493 H   0  0  0  0  0  0  0  0  0  0  0  0
    2.1695   -0.1456   -1.0694 H   0  0  0  0  0  0  0  0  0  0  0  0
    3.1529    0.0968    0.4217 H   0  0  0  0  0  0  0  0  0  0  0  0
  1  2  1  0
  2  3  1  0
  3  4  1  0
  4  5  1  0
  1  6  1  0
  1  7  1  0
  1  8  1  0
  2  9  1  0
  2 10  1  0
  3 11  1  0
  4 12  1  0
  4 13  1  0
  5 14  1  0
  5 15  1  0
  5 16  1  0
M  END
