
     RDKit          3D

 15 14  0  0  0  0  0  0  0  0999 V2000
   -1.0582    1.7641    0.7976 C   0  0  0  0  0  0  0  0  0  0  0  0
   -0.7689    0.6802   -0.2368 C   0  0  0  0  0  0  0  0  0  0  0  0
    0.3663   -0.2397    0.2272 C   0  0  0  0  0  0  0  0  0  0  0  0
    0.6519   -1.3246   -0.8142 C   0  0  0  0  0  0  0  0  0  0  0  0
    1.7394   -2.1979   -0.3590 C   0  0  0  0  0  0  0  0  0  0  0  0
    2.5972   -2.8868   -0.0002 N   0  0  0  0  0  0  0  0  0  0  0  0
   -1.3652    1.3054    1.7617 H   0  0  0  0  0  0  0  0  0  0  0  0
   -0.1568    2.3925    0.9605 H   0  0  0  0  0  0  0  0  0  0  0  0
   -1.8828    2.4133    0.4350 H   0  0  0  0  0  0  0  0  0  0  0  0
   -1.6927    0.0830   -0.3996 H   0  0  0  0  0  0  0  0  0  0  0  0
   -0.4895    1.1655   -1.1974 H   0  0  0  0  0  0  0  0  0  0  0  0
    1.2859    0.3654    0.3914 H   0  0  0  0  0  0  0  0  0  0  0  0
    0.0809   -0.7187    1.1904 H   0  0  0  0  0  0  0  0  0  0  0  0
    0.9491   -0.8586   -1.7779 H   0  0  0  0  0  0  0  0  0  0  0  0
   -0.2562   -1.9431   -0.9787 H   0  0  0  0  0  0  0  0  0  0  0  0
  1  2  1  0
  2  3  1  0
  3  4  1  0
  4  5  1  0
  5  6  3  0
  1  7  1  0
  1  8  1  0
  1  9  1  0
  2 10  1  0
  2 11  1  0
  3 12  1  0
  3 13  1  0
  4 14  1  0
  4 15  1  0
M  END
