
     RDKit          3D

 15 14  0  0  0  0  0  0  0  0999 V2000
   -2.1057    0.1855    0.4294 C   0  0  0  0  0  0  0  0  0  0  0  0
   -0.5930    0.2990    0.5944 C   0  0  0  0  0  0  0  0  0  0  0  0
    0.1433   -0.4507   -0.5236 C   0  0  0  0  0  0  0  0  0  0  0  0
    1.6613   -0.3664   -0.3575 C   0  0  0  0  0  0  0  0  0  0  0  0
    2.0902    0.9589   -0.5075 O   0  0  0  0  0  0  0  0  0  0  0  0
   -2.4197   -0.8793    0.4709 H   0  0  0  0  0  0  0  0  0  0  0  0
   -2.6116    0.7369    1.2497 H   0  0  0  0  0  0  0  0  0  0  0  0
   -2.4218    0.6239   -0.5412 H   0  0  0  0  0  0  0  0  0  0  0  0
   -0.3067   -0.1245    1.5818 H   0  0  0  0  0  0  0  0  0  0  0  0
   -0.3114    1.3743    0.5776 H   0  0  0  0  0  0  0  0  0  0  0  0
   -0.1398   -0.0270   -1.5122 H   0  0  0  0  0  0  0  0  0  0  0  0
   -0.1557   -1.5217   -0.5071 H   0  0  0  0  0  0  0  0  0  0  0  0
    1.9536   -0.7521    0.6451 H   0  0  0  0  0  0  0  0  0  0  0  0
    2.1423   -1.0017   -1.1342 H   0  0  0  0  0  0  0  0  0  0  0  0
    3.0747    0.9448   -0.3831 H   0  0  0  0  0  0  0  0  0  0  0  0
  1  2  1  0
  2  3  1  0
  3  4  1  0
  4  5  1  0
  1  6  1  0
  1  7  1  0
  1  8  1  0
  2  9  1  0
  2 10  1  0
  3 11  1  0
  3 12  1  0
  4 13  1  0
  4 14  1  0
  5 15  1  0
M  END
