
     RDKit          3D

 22 21  0  0  0  0  0  0  0  0999 V2000
   -3.5785   -0.1508    0.3484 C   0  0  0  0  0  0  0  0  0  0  0  0
   -2.3721    0.0731   -0.5302 C   0  0  0  0  0  0  0  0  0  0  0  0
   -1.1124   -0.1189    0.3051 C   0  0  0  0  0  0  0  0  0  0  0  0
    0.0879    0.1157   -0.6186 C   0  0  0  0  0  0  0  0  0  0  0  0
    1.3291   -0.0703    0.1915 C   0  0  0  0  0  0  0  0  0  0  0  0
    2.5044    0.1534   -0.6892 C   0  0  0  0  0  0  0  0  0  0  0  0
    3.8748    0.0280   -0.1241 C   0  0  0  0  0  0  0  0  0  0  0  0
    2.3772    0.4335   -1.8475 O   0  0  0  0  0  0  0  0  0  0  0  0
   -4.1614   -0.9753   -0.1093 H   0  0  0  0  0  0  0  0  0  0  0  0
   -3.2659   -0.4475    1.3844 H   0  0  0  0  0  0  0  0  0  0  0  0
   -4.1870    0.7709    0.4749 H   0  0  0  0  0  0  0  0  0  0  0  0
   -2.3637    1.1206   -0.8907 H   0  0  0  0  0  0  0  0  0  0  0  0
   -2.3469   -0.5762   -1.4187 H   0  0  0  0  0  0  0  0  0  0  0  0
   -1.0194   -1.1631    0.6688 H   0  0  0  0  0  0  0  0  0  0  0  0
   -1.0419    0.6262    1.0990 H   0  0  0  0  0  0  0  0  0  0  0  0
    0.0089    1.1451   -0.9673 H   0  0  0  0  0  0  0  0  0  0  0  0
    0.0103   -0.5628   -1.4787 H   0  0  0  0  0  0  0  0  0  0  0  0
    1.3238    0.7280    0.9899 H   0  0  0  0  0  0  0  0  0  0  0  0
    1.3950   -1.0744    0.6638 H   0  0  0  0  0  0  0  0  0  0  0  0
    3.8065    0.2668    0.9529 H   0  0  0  0  0  0  0  0  0  0  0  0
    4.5346    0.7045   -0.6815 H   0  0  0  0  0  0  0  0  0  0  0  0
    4.1964   -1.0265   -0.2958 H   0  0  0  0  0  0  0  0  0  0  0  0
  1  2  1  0
  2  3  1  0
  3  4  1  0
  4  5  1  0
  5  6  1  0
  6  7  1  0
  6  8  2  0
  1  9  1  0
  1 10  1  0
  1 11  1  0
  2 12  1  0
  2 13  1  0
  3 14  1  0
  3 15  1  0
  4 16  1  0
  4 17  1  0
  5 18  1  0
  5 19  1  0
  7 20  1  0
  7 21  1  0
  7 22  1  0
M  END
