
     RDKit          3D

  9  8  0  0  0  0  0  0  0  0999 V2000
  46.2503    10.2170    26.0378 C   0  0  0  0  0  0  0  0  0  0  0  0
  45.7913    10.0365    27.5475 C   0  0  0  0  0  0  0  0  0  0  0  0
  46.8017     9.3983    28.4686 C   0  0  0  0  0  0  0  0  0  0  0  0
  48.0275    10.2201    28.9177 C   0  0  0  0  0  0  0  0  0  0  0  0
  47.7289    11.3456    29.8966 C   0  0  0  0  0  0  0  0  0  0  0  0
  48.5982    12.5945    29.7939 C   0  0  0  0  0  0  0  0  0  0  0  0
  48.6431    13.3060    28.4868 C   0  0  0  0  0  0  0  0  0  0  0  0
  49.7882    14.2818    28.6135 C   0  0  0  0  0  0  0  0  0  0  0  0
  50.2111    14.8815    27.3990 C   0  0  0  0  0  0  0  0  0  0  0  0
  1  2  1  0
  2  3  1  0
  3  4  1  0
  4  5  1  0
  5  6  1  0
  6  7  1  0
  7  8  1  0
  8  9  1  0
M  END
