
     RDKit          3D

 14 13  0  0  0  0  0  0  0  0999 V2000
  36.3129    30.8248    32.8288 C   0  0  0  0  0  0  0  0  0  0  0  0
  36.4868    29.2734    32.7669 C   0  0  0  0  0  0  0  0  0  0  0  0
  37.2160    28.9060    31.5864 C   0  0  0  0  0  0  0  0  0  0  0  0
  37.0740    27.4801    31.1498 C   0  0  0  0  0  0  0  0  0  0  0  0
  37.8085    26.9742    29.9828 C   0  0  0  0  0  0  0  0  0  0  0  0
  39.3237    26.6852    30.1446 C   0  0  0  0  0  0  0  0  0  0  0  0
  39.9706    26.3993    28.8331 C   0  0  0  0  0  0  0  0  0  0  0  0
  41.3937    26.0220    28.9756 C   0  0  0  0  0  0  0  0  0  0  0  0
  42.2963    26.6107    27.8901 C   0  0  0  0  0  0  0  0  0  0  0  0
  43.1768    27.8202    28.3611 C   0  0  0  0  0  0  0  0  0  0  0  0
  42.4442    29.0917    28.8226 C   0  0  0  0  0  0  0  0  0  0  0  0
  43.4610    30.0944    29.4254 C   0  0  0  0  0  0  0  0  0  0  0  0
  43.6830    30.0769    30.8974 C   0  0  0  0  0  0  0  0  0  0  0  0
  44.5697    31.2311    31.2460 C   0  0  0  0  0  0  0  0  0  0  0  0
  1  2  1  0
  2  3  1  0
  3  4  1  0
  4  5  1  0
  5  6  1  0
  6  7  1  0
  7  8  1  0
  8  9  1  0
  9 10  1  0
 10 11  1  0
 11 12  1  0
 12 13  1  0
 13 14  1  0
M  END
