
     RDKit          3D

 11 10  0  0  0  0  0  0  0  0999 V2000
  53.1594     7.4253     3.8914 C   0  0  0  0  0  0  0  0  0  0  0  0
  52.6871     7.8614     2.4898 C   0  0  0  0  0  0  0  0  0  0  0  0
  52.5153     6.7297     1.4892 C   0  0  0  0  0  0  0  0  0  0  0  0
  51.9996     6.9558     0.1135 C   0  0  0  0  0  0  0  0  0  0  0  0
  51.4795     5.6724    -0.4679 C   0  0  0  0  0  0  0  0  0  0  0  0
  50.1734     5.2045     0.1686 C   0  0  0  0  0  0  0  0  0  0  0  0
  48.9892     6.1799    -0.1408 C   0  0  0  0  0  0  0  0  0  0  0  0
  47.5748     5.8715     0.3607 C   0  0  0  0  0  0  0  0  0  0  0  0
  46.5787     6.9348     0.0206 C   0  0  0  0  0  0  0  0  0  0  0  0
  45.3145     7.0948     0.8134 C   0  0  0  0  0  0  0  0  0  0  0  0
  45.6067     7.2488     2.2810 C   0  0  0  0  0  0  0  0  0  0  0  0
  1  2  1  0
  2  3  1  0
  3  4  1  0
  4  5  1  0
  5  6  1  0
  6  7  1  0
  7  8  1  0
  8  9  1  0
  9 10  1  0
 10 11  1  0
M  END
