
     RDKit          3D

 15 14  0  0  0  0  0  0  0  0999 V2000
   4.0867    50.3948    38.7863 C   0  0  0  0  0  0  0  0  0  0  0  0
   4.0053    50.4344    40.2929 C   0  0  0  0  0  0  0  0  0  0  0  0
   2.5821    50.3712    40.8619 C   0  0  0  0  0  0  0  0  0  0  0  0
   2.9311    50.2876    42.3498 C   0  0  0  0  0  0  0  0  0  0  0  0
   2.7572    48.8841    42.8260 C   0  0  0  0  0  0  0  0  0  0  0  0
   2.2677    48.6859    44.2954 C   0  0  0  0  0  0  0  0  0  0  0  0
   2.2587    47.2562    44.8625 C   0  0  0  0  0  0  0  0  0  0  0  0
   1.3337    46.3021    44.0729 C   0  0  0  0  0  0  0  0  0  0  0  0
   1.2528    44.8960    44.6307 C   0  0  0  0  0  0  0  0  0  0  0  0
   2.3520    44.0170    44.1025 C   0  0  0  0  0  0  0  0  0  0  0  0
   2.0372    43.3336    42.7163 C   0  0  0  0  0  0  0  0  0  0  0  0
   3.3004    42.6980    42.0679 C   0  0  0  0  0  0  0  0  0  0  0  0
   2.9624    41.8880    40.7960 C   0  0  0  0  0  0  0  0  0  0  0  0
   2.5366    40.3815    40.9687 C   0  0  0  0  0  0  0  0  0  0  0  0
   2.1484    39.6867    39.7029 C   0  0  0  0  0  0  0  0  0  0  0  0
  1  2  1  0
  2  3  1  0
  3  4  1  0
  4  5  1  0
  5  6  1  0
  6  7  1  0
  7  8  1  0
  8  9  1  0
  9 10  1  0
 10 11  1  0
 11 12  1  0
 12 13  1  0
 13 14  1  0
 14 15  1  0
M  END
