
     RDKit          3D

 10  9  0  0  0  0  0  0  0  0999 V2000
    6.1620   40.6409    37.0365 C   0  0  0  0  0  0  0  0  0  0  0  0
    7.3874   41.4421    36.6408 C   0  0  0  0  0  0  0  0  0  0  0  0
    7.4763   41.6952    35.1003 C   0  0  0  0  0  0  0  0  0  0  0  0
    7.8518   43.0950    34.5736 C   0  0  0  0  0  0  0  0  0  0  0  0
    6.9096   44.0803    35.1501 C   0  0  0  0  0  0  0  0  0  0  0  0
    5.3898   43.9268    34.8254 C   0  0  0  0  0  0  0  0  0  0  0  0
    4.8844   43.8291    33.3685 C   0  0  0  0  0  0  0  0  0  0  0  0
    3.3716   43.6190    33.1759 C   0  0  0  0  0  0  0  0  0  0  0  0
    2.8555   42.2515    33.3538 C   0  0  0  0  0  0  0  0  0  0  0  0
    1.3095   42.2760    33.3458 C   0  0  0  0  0  0  0  0  0  0  0  0
  1  2  1  0
  2  3  1  0
  3  4  1  0
  4  5  1  0
  5  6  1  0
  6  7  1  0
  7  8  1  0
  8  9  1  0
  9 10  1  0
M  END
